<?xml version="1.0" encoding="UTF-8"?>


<configuration>

    <input>
        <net-file value="hu.net.xml"/>
        <route-files value="hu.rou.xml"/>
    </input>

    <time>
        <begin value="0" />
        <end value="100000" />
    </time>

    <processing>
        <ignore-route-errors value="true"/>
    </processing>

</configuration>