<?xml version="1.0" encoding="UTF-8"?>

<!-- generated on 2023-05-10 19:30:21 by Eclipse SUMO netedit Version v1_14_1+2245-8aa96d847b0
-->

<routes xmlns:xsi="http://www.w3.org/2001/XMLSchema-instance" xsi:noNamespaceSchemaLocation="http://sumo.dlr.de/xsd/routes_file.xsd">
    <!-- Vehicles, persons and containers (sorted by depart) -->
    <flow id="f_0" begin="0.00" from="-E7" to="E4" end="3600.00" vehsPerHour="1800.00"/>
</routes>
