<?xml version="1.0" encoding="UTF-8"?>

<routes>
    <vType id="ElectricBus" accel="1.0" decel="1.0" length="60" maxSpeed="10.0" sigma="0.0" minGap="2.5" color="1,1,1">
        <param key="has.battery.device" value="true"/>
        <param key="maximumBatteryCapacity" value="2000"/>
        <param key="maximumPower" value="1000"/>
        <param key="vehicleMass" value="10000"/>
        <param key="frontSurfaceArea" value="5"/>
        <param key="airDragCoefficient" value="0.6"/>
        <param key="internalMomentOfInertia" value="0.01"/>
        <param key="radialDragCoefficient" value="0.5"/>
        <param key="rollDragCoefficient" value="0.01"/>
        <param key="constantPowerIntake" value="100"/>
        <param key="propulsionEfficiency" value="0.9"/>
        <param key="recuperationEfficiency" value="0.9"/>
        <param key="stoppingTreshold" value="0.1"/>
        <param key="emissionClass" value="Energy"/>
    </vType>
    <trip id="t_0" type="ElectricBus" depart="0.00" from="E0" to="E3">
    </trip>

    <vehicle id="v0" depart="0" type="ElectricBus">
        <route edges="E0 E2 E3"/>
    </vehicle>
    <vehicle id="v1" depart="0" type="ElectricBus">
        <route edges="E0 E2 E4"/>
    </vehicle>
</routes>
