<?xml version="1.0" encoding="UTF-8"?>

<!-- generated on 2023-06-21 15:14:05 by Eclipse SUMO netedit Version v1_14_1+2245-8aa96d847b0
<configuration xmlns:xsi="http://www.w3.org/2001/XMLSchema-instance" xsi:noNamespaceSchemaLocation="http://sumo.dlr.de/xsd/netconvertConfiguration.xsd">

    <input>
        <sumo-net-file value="/Users/guanghu/Desktop/changelight.net.xml"/>
    </input>

    <output>
        <output-file value="/Users/guanghu/Desktop/changelight.net.xml"/>
    </output>

    <processing>
        <geometry.min-radius.fix.railways value="false"/>
        <geometry.max-grade.fix value="false"/>
        <offset.disable-normalization value="true"/>
        <lefthand value="0"/>
    </processing>

    <junctions>
        <no-turnarounds value="true"/>
        <junctions.corner-detail value="5"/>
        <junctions.limit-turn-speed value="5.50"/>
        <rectangular-lane-cut value="0"/>
    </junctions>

    <pedestrian>
        <walkingareas value="0"/>
    </pedestrian>

</configuration>
-->

<net version="1.9" junctionCornerDetail="5" limitTurnSpeed="5.50" xmlns:xsi="http://www.w3.org/2001/XMLSchema-instance" xsi:noNamespaceSchemaLocation="http://sumo.dlr.de/xsd/net_file.xsd">

    <location netOffset="0.00,0.00" convBoundary="-1000.00,-15100.00,4000.00,100.00" origBoundary="-10000000000.00,-10000000000.00,10000000000.00,10000000000.00" projParameter="!"/>

    <edge id=":J1_0" function="internal">
        <lane id=":J1_0_0" index="0" speed="20.00" length="9.22" shape="-1.60,1.50 -1.60,-7.72"/>
    </edge>
    <edge id=":J1_1" function="internal">
        <lane id=":J1_1_0" index="0" speed="13.66" length="9.23" shape="-1.60,1.50 -1.34,-1.13 -0.60,-2.83 0.58,-4.41 2.14,-6.68"/>
    </edge>
    <edge id=":J2_0" function="internal">
        <lane id=":J2_0_0" index="0" speed="20.00" length="11.20" shape="-1.60,-4996.00 -1.60,-5007.20"/>
    </edge>
    <edge id=":J2_1" function="internal">
        <lane id=":J2_1_0" index="0" speed="6.51" length="9.03" shape="-1.60,-4996.00 -1.25,-4998.45 -0.20,-5000.20 1.55,-5001.25 4.00,-5001.60"/>
    </edge>
    <edge id=":J2_2" function="internal">
        <lane id=":J2_2_0" index="0" speed="6.51" length="9.03" shape="-7.20,-5001.60 -4.75,-5001.95 -3.00,-5003.00 -1.95,-5004.75 -1.60,-5007.20"/>
    </edge>
    <edge id=":J2_3" function="internal">
        <lane id=":J2_3_0" index="0" speed="13.89" length="11.20" shape="-7.20,-5001.60 4.00,-5001.60"/>
    </edge>
    <edge id=":J3_0" function="internal">
        <lane id=":J3_0_0" index="0" speed="20.00" length="11.20" shape="-1.60,-9996.00 -1.60,-10007.20"/>
    </edge>
    <edge id=":J3_1" function="internal">
        <lane id=":J3_1_0" index="0" speed="6.51" length="9.03" shape="-1.60,-9996.00 -1.25,-9998.45 -0.20,-10000.20 1.55,-10001.25 4.00,-10001.60"/>
    </edge>
    <edge id=":J3_2" function="internal">
        <lane id=":J3_2_0" index="0" speed="6.51" length="9.03" shape="-7.20,-10001.60 -4.75,-10001.95 -3.00,-10003.00 -1.95,-10004.75 -1.60,-10007.20"/>
    </edge>
    <edge id=":J3_3" function="internal">
        <lane id=":J3_3_0" index="0" speed="13.89" length="11.20" shape="-7.20,-10001.60 4.00,-10001.60"/>
    </edge>
    <edge id=":J4_0" function="internal">
        <lane id=":J4_0_0" index="0" speed="20.00" length="9.93" shape="-1.60,-14992.28 -2.10,-14995.09 -3.20,-14996.89 -4.30,-14998.69 -4.80,-15001.50"/>
    </edge>
    <edge id=":J4_1" function="internal">
        <lane id=":J4_1_0" index="0" speed="13.66" length="9.23" shape="2.14,-14993.32 0.58,-14995.59 -0.60,-14997.17 -1.34,-14998.87 -1.60,-15001.50"/>
    </edge>
    <edge id=":J6_0" function="internal">
        <lane id=":J6_0_0" index="0" speed="6.65" length="9.46" shape="2992.27,-5001.60 2994.95,-5001.95 2996.87,-5003.00 2998.02,-5004.75 2998.40,-5007.20"/>
    </edge>
    <edge id=":J6_1" function="internal">
        <lane id=":J6_1_0" index="0" speed="13.89" length="11.73" shape="2992.27,-5001.60 3004.00,-5001.60"/>
    </edge>
    <edge id=":J6_2" function="internal">
        <lane id=":J6_2_0" index="0" speed="15.53" length="11.99" shape="2995.58,-4995.75 2997.11,-4998.64 2997.96,-5001.21 2998.32,-5003.90 2998.40,-5007.20"/>
    </edge>
    <edge id=":J6_3" function="internal">
        <lane id=":J6_3_0" index="0" speed="9.01" length="10.72" shape="2995.58,-4995.75 2997.43,-4998.31 2999.44,-5000.14 3001.63,-5001.23 3004.00,-5001.60"/>
    </edge>
    <edge id=":J7_0" function="internal">
        <lane id=":J7_0_0" index="0" speed="15.91" length="12.60" shape="2998.40,-9996.00 2998.02,-9999.30 2997.00,-10001.99 2995.49,-10004.56 2993.66,-10007.45"/>
    </edge>
    <edge id=":J7_1" function="internal">
        <lane id=":J7_1_0" index="0" speed="6.51" length="9.03" shape="2998.40,-9996.00 2998.75,-9998.45 2999.80,-10000.20 3001.55,-10001.25 3004.00,-10001.60"/>
    </edge>
    <edge id=":J7_2" function="internal">
        <lane id=":J7_2_0" index="0" speed="5.65" length="9.26" shape="2990.35,-10001.60 2993.12,-10001.97 2994.59,-10003.06 2994.77,-10004.89 2993.66,-10007.45"/>
    </edge>
    <edge id=":J7_3" function="internal">
        <lane id=":J7_3_0" index="0" speed="13.89" length="13.65" shape="2990.35,-10001.60 3004.00,-10001.60"/>
    </edge>

    <edge id="E0" from="J0" to="J1" priority="-1">
        <lane id="E0_0" index="0" speed="20.00" length="98.50" shape="-1.60,100.00 -1.60,1.50"/>
    </edge>
    <edge id="E1" from="J1" to="J2" priority="-1">
        <lane id="E1_0" index="0" speed="20.00" length="4988.28" shape="-1.60,-7.72 -1.60,-4996.00"/>
    </edge>
    <edge id="E10" from="J6" to="J9" priority="-1">
        <lane id="E10_0" index="0" speed="13.89" length="996.00" shape="3004.00,-5001.60 4000.00,-5001.60"/>
    </edge>
    <edge id="E11" from="J10" to="J3" priority="-1">
        <lane id="E11_0" index="0" speed="13.89" length="992.80" shape="-1000.00,-10001.60 -7.20,-10001.60"/>
    </edge>
    <edge id="E12" from="J3" to="J7" priority="-1">
        <lane id="E12_0" index="0" speed="13.89" length="2986.35" shape="4.00,-10001.60 2990.35,-10001.60"/>
    </edge>
    <edge id="E13" from="J7" to="J11" priority="-1">
        <lane id="E13_0" index="0" speed="13.89" length="996.00" shape="3004.00,-10001.60 4000.00,-10001.60"/>
    </edge>
    <edge id="E2" from="J2" to="J3" priority="-1">
        <lane id="E2_0" index="0" speed="20.00" length="4988.80" shape="-1.60,-5007.20 -1.60,-9996.00"/>
    </edge>
    <edge id="E3" from="J3" to="J4" priority="-1">
        <lane id="E3_0" index="0" speed="20.00" length="4985.08" shape="-1.60,-10007.20 -1.60,-14992.28"/>
    </edge>
    <edge id="E4" from="J4" to="J5" priority="-1">
        <lane id="E4_0" index="0" speed="20.00" length="98.50" shape="-4.80,-15001.50 -4.80,-15100.00"/>
        <lane id="E4_1" index="1" speed="20.00" length="98.50" shape="-1.60,-15001.50 -1.60,-15100.00"/>
    </edge>
    <edge id="E5" from="J1" to="J6" priority="-1">
        <lane id="E5_0" index="0" speed="20.00" length="5818.20" shape="2.14,-6.68 2995.58,-4995.75"/>
    </edge>
    <edge id="E6" from="J6" to="J7" priority="-1">
        <lane id="E6_0" index="0" speed="20.00" length="4988.80" shape="2998.40,-5007.20 2998.40,-9996.00"/>
    </edge>
    <edge id="E7" from="J7" to="J4" priority="-1">
        <lane id="E7_0" index="0" speed="20.00" length="5814.47" shape="2993.66,-10007.45 2.14,-14993.32"/>
    </edge>
    <edge id="E8" from="J8" to="J2" priority="-1">
        <lane id="E8_0" index="0" speed="13.89" length="992.80" shape="-1000.00,-5001.60 -7.20,-5001.60"/>
    </edge>
    <edge id="E9" from="J2" to="J6" priority="-1">
        <lane id="E9_0" index="0" speed="13.89" length="2988.27" shape="4.00,-5001.60 2992.27,-5001.60"/>
    </edge>

    <tlLogic id="J2" type="static" programID="0" offset="0">
        <phase duration="42" state="GGrr"/>
        <phase duration="3"  state="yyrr"/>
        <phase duration="42" state="rrGG"/>
        <phase duration="3"  state="rryy"/>
    </tlLogic>
    <tlLogic id="J3" type="static" programID="0" offset="0">
        <phase duration="42" state="GGrr"/>
        <phase duration="3"  state="yyrr"/>
        <phase duration="42" state="rrGG"/>
        <phase duration="3"  state="rryy"/>
    </tlLogic>
    <tlLogic id="J6" type="static" programID="0" offset="0">
        <phase duration="42" state="GGrr"/>
        <phase duration="3"  state="yyrr"/>
        <phase duration="42" state="rrGG"/>
        <phase duration="3"  state="rryy"/>
    </tlLogic>
    <tlLogic id="J7" type="static" programID="0" offset="0">
        <phase duration="42" state="GGrr"/>
        <phase duration="3"  state="yyrr"/>
        <phase duration="42" state="rrGG"/>
        <phase duration="3"  state="rryy"/>
    </tlLogic>

    <junction id="J0" type="dead_end" x="0.00" y="100.00" incLanes="" intLanes="" shape="0.00,100.00 -3.20,100.00"/>
    <junction id="J1" type="priority" x="0.00" y="0.00" incLanes="E0_0" intLanes=":J1_0_0 :J1_1_0" shape="-3.20,1.50 0.00,1.50 0.45,-1.44 0.97,-2.40 1.67,-3.30 2.53,-4.38 3.52,-5.86 0.77,-7.51 0.00,-7.72 -3.20,-7.72">
        <request index="0" response="00" foes="00" cont="0"/>
        <request index="1" response="00" foes="00" cont="0"/>
    </junction>
    <junction id="J10" type="dead_end" x="-1000.00" y="-10000.00" incLanes="" intLanes="" shape="-1000.00,-10000.00 -1000.00,-10003.20"/>
    <junction id="J11" type="dead_end" x="4000.00" y="-10000.00" incLanes="E13_0" intLanes="" shape="4000.00,-10003.20 4000.00,-10000.00"/>
    <junction id="J2" type="traffic_light" x="0.00" y="-5000.00" incLanes="E1_0 E8_0" intLanes=":J2_0_0 :J2_1_0 :J2_2_0 :J2_3_0" shape="-3.20,-4996.00 0.00,-4996.00 0.44,-4998.22 1.00,-4999.00 1.78,-4999.56 2.78,-4999.89 4.00,-5000.00 4.00,-5003.20 1.78,-5003.64 1.00,-5004.20 0.44,-5004.98 0.11,-5005.98 0.00,-5007.20 -3.20,-5007.20 -3.64,-5004.98 -4.20,-5004.20 -4.98,-5003.64 -5.98,-5003.31 -7.20,-5003.20 -7.20,-5000.00 -4.98,-4999.56 -4.20,-4999.00 -3.64,-4998.22 -3.31,-4997.22">
        <request index="0" response="0000" foes="1100" cont="0"/>
        <request index="1" response="0000" foes="1000" cont="0"/>
        <request index="2" response="0001" foes="0001" cont="0"/>
        <request index="3" response="0011" foes="0011" cont="0"/>
    </junction>
    <junction id="J3" type="traffic_light" x="0.00" y="-10000.00" incLanes="E2_0 E11_0" intLanes=":J3_0_0 :J3_1_0 :J3_2_0 :J3_3_0" shape="-3.20,-9996.00 0.00,-9996.00 0.44,-9998.22 1.00,-9999.00 1.78,-9999.56 2.78,-9999.89 4.00,-10000.00 4.00,-10003.20 1.78,-10003.64 1.00,-10004.20 0.44,-10004.98 0.11,-10005.98 0.00,-10007.20 -3.20,-10007.20 -3.64,-10004.98 -4.20,-10004.20 -4.98,-10003.64 -5.98,-10003.31 -7.20,-10003.20 -7.20,-10000.00 -4.98,-9999.56 -4.20,-9999.00 -3.64,-9998.22 -3.31,-9997.22">
        <request index="0" response="0000" foes="1100" cont="0"/>
        <request index="1" response="0000" foes="1000" cont="0"/>
        <request index="2" response="0001" foes="0001" cont="0"/>
        <request index="3" response="0011" foes="0011" cont="0"/>
    </junction>
    <junction id="J4" type="priority" x="0.00" y="-15000.00" incLanes="E3_0 E7_0" intLanes=":J4_0_0 :J4_1_0" shape="-3.20,-14992.28 0.00,-14992.28 0.77,-14992.49 3.52,-14994.14 1.67,-14996.70 0.97,-14997.60 0.45,-14998.56 0.11,-14999.78 0.00,-15001.50 -6.40,-15001.50 -6.16,-14999.46 -5.57,-14998.03 -4.03,-14995.75 -3.44,-14994.32">
        <request index="0" response="00" foes="00" cont="0"/>
        <request index="1" response="00" foes="00" cont="0"/>
    </junction>
    <junction id="J5" type="dead_end" x="0.00" y="-15100.00" incLanes="E4_0 E4_1" intLanes="" shape="-6.40,-15100.00 0.00,-15100.00"/>
    <junction id="J6" type="traffic_light" x="3000.00" y="-5000.00" incLanes="E9_0 E5_0" intLanes=":J6_0_0 :J6_1_0 :J6_2_0 :J6_3_0" shape="3004.00,-5000.00 3004.00,-5003.20 3001.78,-5003.64 3001.00,-5004.20 3000.44,-5004.98 3000.11,-5005.98 3000.00,-5007.20 2996.80,-5007.20 2996.30,-5004.98 2995.67,-5004.20 2994.79,-5003.64 2993.65,-5003.31 2992.27,-5003.20 2992.27,-5000.00 2994.26,-4999.62 2994.75,-4999.14 2994.91,-4998.48 2994.73,-4997.62 2994.21,-4996.57 2996.95,-4994.92 2999.09,-4997.74 3000.24,-4998.73 3001.44,-4999.44 3002.69,-4999.86">
        <request index="0" response="0100" foes="0100" cont="0"/>
        <request index="1" response="1100" foes="1100" cont="0"/>
        <request index="2" response="0000" foes="0011" cont="0"/>
        <request index="3" response="0000" foes="0010" cont="0"/>
    </junction>
    <junction id="J7" type="traffic_light" x="3000.00" y="-10000.00" incLanes="E6_0 E12_0" intLanes=":J7_0_0 :J7_1_0 :J7_2_0 :J7_3_0" shape="2996.80,-9996.00 3000.00,-9996.00 3000.44,-9998.22 3001.00,-9999.00 3001.78,-9999.56 3002.78,-9999.89 3004.00,-10000.00 3004.00,-10003.20 3000.37,-10003.76 2998.80,-10004.47 2997.38,-10005.46 2996.13,-10006.73 2995.03,-10008.28 2992.29,-10006.63 2992.99,-10004.72 2992.83,-10004.06 2992.34,-10003.58 2991.51,-10003.30 2990.35,-10003.20 2990.35,-10000.00 2993.93,-9999.56 2995.19,-9999.00 2996.08,-9998.22 2996.62,-9997.22">
        <request index="0" response="0000" foes="1100" cont="0"/>
        <request index="1" response="0000" foes="1000" cont="0"/>
        <request index="2" response="0001" foes="0001" cont="0"/>
        <request index="3" response="0011" foes="0011" cont="0"/>
    </junction>
    <junction id="J8" type="dead_end" x="-1000.00" y="-5000.00" incLanes="" intLanes="" shape="-1000.00,-5000.00 -1000.00,-5003.20"/>
    <junction id="J9" type="dead_end" x="4000.00" y="-5000.00" incLanes="E10_0" intLanes="" shape="4000.00,-5003.20 4000.00,-5000.00"/>

    <connection from="E0" to="E1" fromLane="0" toLane="0" via=":J1_0_0" dir="s" state="M"/>
    <connection from="E0" to="E5" fromLane="0" toLane="0" via=":J1_1_0" dir="L" state="M"/>
    <connection from="E1" to="E2" fromLane="0" toLane="0" via=":J2_0_0" tl="J2" linkIndex="0" dir="s" state="O"/>
    <connection from="E1" to="E9" fromLane="0" toLane="0" via=":J2_1_0" tl="J2" linkIndex="1" dir="l" state="O"/>
    <connection from="E11" to="E3" fromLane="0" toLane="0" via=":J3_2_0" tl="J3" linkIndex="2" dir="r" state="o"/>
    <connection from="E11" to="E12" fromLane="0" toLane="0" via=":J3_3_0" tl="J3" linkIndex="3" dir="s" state="o"/>
    <connection from="E12" to="E7" fromLane="0" toLane="0" via=":J7_2_0" tl="J7" linkIndex="2" dir="r" state="o"/>
    <connection from="E12" to="E13" fromLane="0" toLane="0" via=":J7_3_0" tl="J7" linkIndex="3" dir="s" state="o"/>
    <connection from="E2" to="E3" fromLane="0" toLane="0" via=":J3_0_0" tl="J3" linkIndex="0" dir="s" state="O"/>
    <connection from="E2" to="E12" fromLane="0" toLane="0" via=":J3_1_0" tl="J3" linkIndex="1" dir="l" state="O"/>
    <connection from="E3" to="E4" fromLane="0" toLane="0" via=":J4_0_0" dir="s" state="M"/>
    <connection from="E5" to="E6" fromLane="0" toLane="0" via=":J6_2_0" tl="J6" linkIndex="2" dir="s" state="O"/>
    <connection from="E5" to="E10" fromLane="0" toLane="0" via=":J6_3_0" tl="J6" linkIndex="3" dir="l" state="O"/>
    <connection from="E6" to="E7" fromLane="0" toLane="0" via=":J7_0_0" tl="J7" linkIndex="0" dir="s" state="O"/>
    <connection from="E6" to="E13" fromLane="0" toLane="0" via=":J7_1_0" tl="J7" linkIndex="1" dir="l" state="O"/>
    <connection from="E7" to="E4" fromLane="0" toLane="1" via=":J4_1_0" dir="s" state="M"/>
    <connection from="E8" to="E2" fromLane="0" toLane="0" via=":J2_2_0" tl="J2" linkIndex="2" dir="r" state="o"/>
    <connection from="E8" to="E9" fromLane="0" toLane="0" via=":J2_3_0" tl="J2" linkIndex="3" dir="s" state="o"/>
    <connection from="E9" to="E6" fromLane="0" toLane="0" via=":J6_0_0" tl="J6" linkIndex="0" dir="r" state="o"/>
    <connection from="E9" to="E10" fromLane="0" toLane="0" via=":J6_1_0" tl="J6" linkIndex="1" dir="s" state="o"/>

    <connection from=":J1_0" to="E1" fromLane="0" toLane="0" dir="s" state="M"/>
    <connection from=":J1_1" to="E5" fromLane="0" toLane="0" dir="L" state="M"/>
    <connection from=":J2_0" to="E2" fromLane="0" toLane="0" dir="s" state="M"/>
    <connection from=":J2_1" to="E9" fromLane="0" toLane="0" dir="l" state="M"/>
    <connection from=":J2_2" to="E2" fromLane="0" toLane="0" dir="r" state="M"/>
    <connection from=":J2_3" to="E9" fromLane="0" toLane="0" dir="s" state="M"/>
    <connection from=":J3_0" to="E3" fromLane="0" toLane="0" dir="s" state="M"/>
    <connection from=":J3_1" to="E12" fromLane="0" toLane="0" dir="l" state="M"/>
    <connection from=":J3_2" to="E3" fromLane="0" toLane="0" dir="r" state="M"/>
    <connection from=":J3_3" to="E12" fromLane="0" toLane="0" dir="s" state="M"/>
    <connection from=":J4_0" to="E4" fromLane="0" toLane="0" dir="s" state="M"/>
    <connection from=":J4_1" to="E4" fromLane="0" toLane="1" dir="s" state="M"/>
    <connection from=":J6_0" to="E6" fromLane="0" toLane="0" dir="r" state="M"/>
    <connection from=":J6_1" to="E10" fromLane="0" toLane="0" dir="s" state="M"/>
    <connection from=":J6_2" to="E6" fromLane="0" toLane="0" dir="s" state="M"/>
    <connection from=":J6_3" to="E10" fromLane="0" toLane="0" dir="l" state="M"/>
    <connection from=":J7_0" to="E7" fromLane="0" toLane="0" dir="s" state="M"/>
    <connection from=":J7_1" to="E13" fromLane="0" toLane="0" dir="l" state="M"/>
    <connection from=":J7_2" to="E7" fromLane="0" toLane="0" dir="r" state="M"/>
    <connection from=":J7_3" to="E13" fromLane="0" toLane="0" dir="s" state="M"/>

</net>
