<?xml version="1.0" encoding="UTF-8"?>

<!-- generated on 2023-06-23 13:14:53 by Eclipse SUMO netedit Version v1_14_1+2245-8aa96d847b0
<configuration xmlns:xsi="http://www.w3.org/2001/XMLSchema-instance" xsi:noNamespaceSchemaLocation="http://sumo.dlr.de/xsd/netconvertConfiguration.xsd">

    <input>
        <sumo-net-file value="/Users/guanghu/Desktop/changelight.net.xml"/>
    </input>

    <output>
        <output-file value="/Users/guanghu/Desktop/changelight.net.xml"/>
    </output>

    <processing>
        <geometry.min-radius.fix.railways value="false"/>
        <geometry.max-grade.fix value="false"/>
        <offset.disable-normalization value="true"/>
        <lefthand value="0"/>
    </processing>

    <junctions>
        <no-turnarounds value="true"/>
        <junctions.corner-detail value="5"/>
        <junctions.limit-turn-speed value="5.50"/>
        <rectangular-lane-cut value="0"/>
    </junctions>

    <pedestrian>
        <walkingareas value="0"/>
    </pedestrian>

</configuration>
-->

<net version="1.9" junctionCornerDetail="5" limitTurnSpeed="5.50" xmlns:xsi="http://www.w3.org/2001/XMLSchema-instance" xsi:noNamespaceSchemaLocation="http://sumo.dlr.de/xsd/net_file.xsd">

    <location netOffset="0.00,0.00" convBoundary="-1000.00,-9100.00,5000.00,100.00" origBoundary="-10000000000.00,-10000000000.00,10000000000.00,10000000000.00" projParameter="!"/>

    <edge id=":J1_0" function="internal">
        <lane id=":J1_0_0" index="0" speed="20.00" length="8.00" shape="-1.60,2.00 -1.60,-6.00"/>
    </edge>
    <edge id=":J1_1" function="internal">
        <lane id=":J1_1_0" index="0" speed="8.13" length="7.47" shape="-1.60,2.00 -1.34,0.58 -0.56,-0.88 0.74,-2.38 2.56,-3.92"/>
    </edge>
    <edge id=":J2_0" function="internal">
        <lane id=":J2_0_0" index="0" speed="20.00" length="11.20" shape="-1.60,-2996.00 -1.60,-3007.20"/>
    </edge>
    <edge id=":J2_1" function="internal">
        <lane id=":J2_1_0" index="0" speed="6.51" length="9.03" shape="-1.60,-2996.00 -1.25,-2998.45 -0.20,-3000.20 1.55,-3001.25 4.00,-3001.60"/>
    </edge>
    <edge id=":J2_2" function="internal">
        <lane id=":J2_2_0" index="0" speed="6.51" length="9.03" shape="-7.20,-3001.60 -4.75,-3001.95 -3.00,-3003.00 -1.95,-3004.75 -1.60,-3007.20"/>
    </edge>
    <edge id=":J2_3" function="internal">
        <lane id=":J2_3_0" index="0" speed="13.89" length="11.20" shape="-7.20,-3001.60 4.00,-3001.60"/>
    </edge>
    <edge id=":J3_0" function="internal">
        <lane id=":J3_0_0" index="0" speed="20.00" length="11.20" shape="-1.60,-5996.00 -1.60,-6007.20"/>
    </edge>
    <edge id=":J3_1" function="internal">
        <lane id=":J3_1_0" index="0" speed="6.51" length="9.03" shape="-1.60,-5996.00 -1.25,-5998.45 -0.20,-6000.20 1.55,-6001.25 4.00,-6001.60"/>
    </edge>
    <edge id=":J3_2" function="internal">
        <lane id=":J3_2_0" index="0" speed="6.51" length="9.03" shape="-7.20,-6001.60 -4.75,-6001.95 -3.00,-6003.00 -1.95,-6004.75 -1.60,-6007.20"/>
    </edge>
    <edge id=":J3_3" function="internal">
        <lane id=":J3_3_0" index="0" speed="13.89" length="11.20" shape="-7.20,-6001.60 4.00,-6001.60"/>
    </edge>
    <edge id=":J4_0" function="internal">
        <lane id=":J4_0_0" index="0" speed="20.00" length="8.81" shape="-1.60,-8994.00 -2.10,-8996.46 -3.20,-8998.00 -4.30,-8999.54 -4.80,-9002.00"/>
    </edge>
    <edge id=":J4_1" function="internal">
        <lane id=":J4_1_0" index="0" speed="8.13" length="7.47" shape="2.56,-8996.08 0.74,-8997.62 -0.56,-8999.12 -1.34,-9000.58 -1.60,-9002.00"/>
    </edge>
    <edge id=":J6_0" function="internal">
        <lane id=":J6_0_0" index="0" speed="7.06" length="10.81" shape="3990.67,-3001.60 3994.05,-3001.95 3996.47,-3003.00 3997.92,-3004.75 3998.40,-3007.20"/>
    </edge>
    <edge id=":J6_1" function="internal">
        <lane id=":J6_1_0" index="0" speed="13.89" length="13.33" shape="3990.67,-3001.60 4004.00,-3001.60"/>
    </edge>
    <edge id=":J6_2" function="internal">
        <lane id=":J6_2_0" index="0" speed="10.53" length="12.88" shape="3992.43,-2996.32 3995.04,-2998.68 3996.91,-3001.28 3998.03,-3004.12 3998.40,-3007.20"/>
    </edge>
    <edge id=":J6_3" function="internal">
        <lane id=":J6_3_0" index="0" speed="13.84" length="13.00" shape="3992.43,-2996.32 3995.22,-2998.41 3997.84,-3000.08 4000.64,-3001.20 4004.00,-3001.60"/>
    </edge>
    <edge id=":J7_0" function="internal">
        <lane id=":J7_0_0" index="0" speed="11.40" length="15.20" shape="3998.40,-5996.00 3997.76,-5997.88 3995.84,-6000.32 3992.64,-6003.32 3988.16,-6006.88"/>
    </edge>
    <edge id=":J7_1" function="internal">
        <lane id=":J7_1_0" index="0" speed="6.51" length="9.03" shape="3998.40,-5996.00 3998.75,-5998.45 3999.80,-6000.20 4001.55,-6001.25 4004.00,-6001.60"/>
    </edge>
    <edge id=":J7_2" function="internal">
        <lane id=":J7_2_0" index="0" speed="5.46" length="10.33" shape="3986.40,-6001.60 3989.81,-6001.93 3991.24,-6002.92 3990.69,-6004.57 3988.16,-6006.88"/>
    </edge>
    <edge id=":J7_3" function="internal">
        <lane id=":J7_3_0" index="0" speed="13.89" length="17.60" shape="3986.40,-6001.60 4004.00,-6001.60"/>
    </edge>

    <edge id="E0" from="J0" to="J1" priority="-1">
        <lane id="E0_0" index="0" speed="20.00" length="98.00" shape="-1.60,100.00 -1.60,2.00"/>
    </edge>
    <edge id="E1" from="J1" to="J2" priority="-1">
        <lane id="E1_0" index="0" speed="20.00" length="2990.00" shape="-1.60,-6.00 -1.60,-2996.00"/>
    </edge>
    <edge id="E10" from="J6" to="J9" priority="-1">
        <lane id="E10_0" index="0" speed="13.89" length="996.00" shape="4004.00,-3001.60 5000.00,-3001.60"/>
    </edge>
    <edge id="E11" from="J10" to="J3" priority="-1">
        <lane id="E11_0" index="0" speed="13.89" length="992.80" shape="-1000.00,-6001.60 -7.20,-6001.60"/>
    </edge>
    <edge id="E12" from="J3" to="J7" priority="-1">
        <lane id="E12_0" index="0" speed="13.89" length="3982.40" shape="4.00,-6001.60 3986.40,-6001.60"/>
    </edge>
    <edge id="E13" from="J7" to="J11" priority="-1">
        <lane id="E13_0" index="0" speed="13.89" length="996.00" shape="4004.00,-6001.60 5000.00,-6001.60"/>
    </edge>
    <edge id="E2" from="J2" to="J3" priority="-1">
        <lane id="E2_0" index="0" speed="20.00" length="2988.80" shape="-1.60,-3007.20 -1.60,-5996.00"/>
    </edge>
    <edge id="E3" from="J3" to="J4" priority="-1">
        <lane id="E3_0" index="0" speed="20.00" length="2986.80" shape="-1.60,-6007.20 -1.60,-8994.00"/>
    </edge>
    <edge id="E4" from="J4" to="J5" priority="-1">
        <lane id="E4_0" index="0" speed="20.00" length="98.00" shape="-4.80,-9002.00 -4.80,-9100.00"/>
        <lane id="E4_1" index="1" speed="20.00" length="98.00" shape="-1.60,-9002.00 -1.60,-9100.00"/>
    </edge>
    <edge id="E5" from="J1" to="J6" priority="-1">
        <lane id="E5_0" index="0" speed="20.00" length="4987.33" shape="2.56,-3.92 3992.43,-2996.32"/>
    </edge>
    <edge id="E6" from="J6" to="J7" priority="-1">
        <lane id="E6_0" index="0" speed="20.00" length="2988.80" shape="3998.40,-3007.20 3998.40,-5996.00"/>
    </edge>
    <edge id="E7" from="J7" to="J4" priority="-1">
        <lane id="E7_0" index="0" speed="20.00" length="4982.00" shape="3988.16,-6006.88 2.56,-8996.08"/>
    </edge>
    <edge id="E8" from="J8" to="J2" priority="-1">
        <lane id="E8_0" index="0" speed="13.89" length="992.80" shape="-1000.00,-3001.60 -7.20,-3001.60"/>
    </edge>
    <edge id="E9" from="J2" to="J6" priority="-1">
        <lane id="E9_0" index="0" speed="13.89" length="3986.67" shape="4.00,-3001.60 3990.67,-3001.60"/>
    </edge>

    <tlLogic id="J2" type="static" programID="0" offset="0">
        <phase duration="42" state="GGrr"/>
        <phase duration="3"  state="yyrr"/>
        <phase duration="42" state="rrGG"/>
        <phase duration="3"  state="rryy"/>
    </tlLogic>
    <tlLogic id="J3" type="static" programID="0" offset="0">
        <phase duration="42" state="GGrr"/>
        <phase duration="3"  state="yyrr"/>
        <phase duration="42" state="rrGG"/>
        <phase duration="3"  state="rryy"/>
    </tlLogic>
    <tlLogic id="J6" type="static" programID="0" offset="0">
        <phase duration="42" state="GGrr"/>
        <phase duration="3"  state="yyrr"/>
        <phase duration="42" state="rrGG"/>
        <phase duration="3"  state="rryy"/>
    </tlLogic>
    <tlLogic id="J7" type="static" programID="0" offset="0">
        <phase duration="42" state="GGrr"/>
        <phase duration="3"  state="yyrr"/>
        <phase duration="42" state="rrGG"/>
        <phase duration="3"  state="rryy"/>
    </tlLogic>

    <junction id="J0" type="dead_end" x="0.00" y="100.00" incLanes="" intLanes="" shape="0.00,100.00 -3.20,100.00"/>
    <junction id="J1" type="priority" x="0.00" y="0.00" incLanes="E0_0" intLanes=":J1_0_0 :J1_1_0" shape="-3.20,2.00 0.00,2.00 0.39,0.60 0.88,-0.16 1.56,-0.95 2.44,-1.78 3.52,-2.64 1.60,-5.20 0.71,-4.76 0.40,-4.80 0.18,-5.02 0.04,-5.42 0.00,-6.00 -3.20,-6.00">
        <request index="0" response="00" foes="00" cont="0"/>
        <request index="1" response="00" foes="00" cont="0"/>
    </junction>
    <junction id="J10" type="dead_end" x="-1000.00" y="-6000.00" incLanes="" intLanes="" shape="-1000.00,-6000.00 -1000.00,-6003.20"/>
    <junction id="J11" type="dead_end" x="5000.00" y="-6000.00" incLanes="E13_0" intLanes="" shape="5000.00,-6003.20 5000.00,-6000.00"/>
    <junction id="J2" type="traffic_light" x="0.00" y="-3000.00" incLanes="E1_0 E8_0" intLanes=":J2_0_0 :J2_1_0 :J2_2_0 :J2_3_0" shape="-3.20,-2996.00 0.00,-2996.00 0.44,-2998.22 1.00,-2999.00 1.78,-2999.56 2.78,-2999.89 4.00,-3000.00 4.00,-3003.20 1.78,-3003.64 1.00,-3004.20 0.44,-3004.98 0.11,-3005.98 0.00,-3007.20 -3.20,-3007.20 -3.64,-3004.98 -4.20,-3004.20 -4.98,-3003.64 -5.98,-3003.31 -7.20,-3003.20 -7.20,-3000.00 -4.98,-2999.56 -4.20,-2999.00 -3.64,-2998.22 -3.31,-2997.22">
        <request index="0" response="0000" foes="1100" cont="0"/>
        <request index="1" response="0000" foes="1000" cont="0"/>
        <request index="2" response="0001" foes="0001" cont="0"/>
        <request index="3" response="0011" foes="0011" cont="0"/>
    </junction>
    <junction id="J3" type="traffic_light" x="0.00" y="-6000.00" incLanes="E2_0 E11_0" intLanes=":J3_0_0 :J3_1_0 :J3_2_0 :J3_3_0" shape="-3.20,-5996.00 0.00,-5996.00 0.44,-5998.22 1.00,-5999.00 1.78,-5999.56 2.78,-5999.89 4.00,-6000.00 4.00,-6003.20 1.78,-6003.64 1.00,-6004.20 0.44,-6004.98 0.11,-6005.98 0.00,-6007.20 -3.20,-6007.20 -3.64,-6004.98 -4.20,-6004.20 -4.98,-6003.64 -5.98,-6003.31 -7.20,-6003.20 -7.20,-6000.00 -4.98,-5999.56 -4.20,-5999.00 -3.64,-5998.22 -3.31,-5997.22">
        <request index="0" response="0000" foes="1100" cont="0"/>
        <request index="1" response="0000" foes="1000" cont="0"/>
        <request index="2" response="0001" foes="0001" cont="0"/>
        <request index="3" response="0011" foes="0011" cont="0"/>
    </junction>
    <junction id="J4" type="priority" x="0.00" y="-9000.00" incLanes="E3_0 E7_0" intLanes=":J4_0_0 :J4_1_0" shape="-3.20,-8994.00 0.00,-8994.00 0.18,-8994.98 0.40,-8995.20 0.71,-8995.24 1.11,-8995.11 1.60,-8994.80 3.52,-8997.36 1.56,-8999.05 0.88,-8999.84 0.39,-9000.60 0.10,-9001.32 0.00,-9002.00 -6.40,-9002.00 -5.57,-8998.97 -4.03,-8997.03 -3.44,-8995.79">
        <request index="0" response="00" foes="00" cont="0"/>
        <request index="1" response="00" foes="00" cont="0"/>
    </junction>
    <junction id="J5" type="dead_end" x="0.00" y="-9100.00" incLanes="E4_0 E4_1" intLanes="" shape="-6.40,-9100.00 0.00,-9100.00"/>
    <junction id="J6" type="traffic_light" x="4000.00" y="-3000.00" incLanes="E9_0 E5_0" intLanes=":J6_0_0 :J6_1_0 :J6_2_0 :J6_3_0" shape="4004.00,-3000.00 4004.00,-3003.20 4001.78,-3003.64 4001.00,-3004.20 4000.44,-3004.98 4000.11,-3005.98 4000.00,-3007.20 3996.80,-3007.20 3996.12,-3004.98 3995.27,-3004.20 3994.07,-3003.64 3992.54,-3003.31 3990.67,-3003.20 3990.67,-3000.00 3992.53,-2999.73 3992.87,-2999.40 3992.80,-2998.93 3992.33,-2998.33 3991.47,-2997.60 3993.39,-2995.04 3995.39,-2996.63 3996.92,-2997.89 3998.25,-2998.84 3999.69,-2999.50 4001.51,-2999.88">
        <request index="0" response="0000" foes="0100" cont="0"/>
        <request index="1" response="0000" foes="1100" cont="0"/>
        <request index="2" response="0011" foes="0011" cont="0"/>
        <request index="3" response="0010" foes="0010" cont="0"/>
    </junction>
    <junction id="J7" type="traffic_light" x="4000.00" y="-6000.00" incLanes="E6_0 E12_0" intLanes=":J7_0_0 :J7_1_0 :J7_2_0 :J7_3_0" shape="3996.80,-5996.00 4000.00,-5996.00 4000.44,-5998.22 4001.00,-5999.00 4001.78,-5999.56 4002.78,-5999.89 4004.00,-6000.00 4004.00,-6003.20 4000.61,-6003.24 3998.05,-6003.44 3995.97,-6003.92 3994.02,-6004.78 3991.86,-6006.16 3989.12,-6008.16 3987.20,-6005.60 3988.53,-6004.27 3988.60,-6003.80 3988.27,-6003.47 3987.53,-6003.27 3986.40,-6003.20 3986.40,-6000.00 3989.58,-5999.89 3992.18,-5999.56 3994.20,-5999.00 3995.64,-5998.22 3996.51,-5997.22">
        <request index="0" response="1100" foes="1100" cont="0"/>
        <request index="1" response="1000" foes="1000" cont="0"/>
        <request index="2" response="0000" foes="0001" cont="0"/>
        <request index="3" response="0000" foes="0011" cont="0"/>
    </junction>
    <junction id="J8" type="dead_end" x="-1000.00" y="-3000.00" incLanes="" intLanes="" shape="-1000.00,-3000.00 -1000.00,-3003.20"/>
    <junction id="J9" type="dead_end" x="5000.00" y="-3000.00" incLanes="E10_0" intLanes="" shape="5000.00,-3003.20 5000.00,-3000.00"/>

    <connection from="E0" to="E1" fromLane="0" toLane="0" via=":J1_0_0" dir="s" state="M"/>
    <connection from="E0" to="E5" fromLane="0" toLane="0" via=":J1_1_0" dir="l" state="M"/>
    <connection from="E1" to="E2" fromLane="0" toLane="0" via=":J2_0_0" tl="J2" linkIndex="0" dir="s" state="O"/>
    <connection from="E1" to="E9" fromLane="0" toLane="0" via=":J2_1_0" tl="J2" linkIndex="1" dir="l" state="O"/>
    <connection from="E11" to="E3" fromLane="0" toLane="0" via=":J3_2_0" tl="J3" linkIndex="2" dir="r" state="o"/>
    <connection from="E11" to="E12" fromLane="0" toLane="0" via=":J3_3_0" tl="J3" linkIndex="3" dir="s" state="o"/>
    <connection from="E12" to="E7" fromLane="0" toLane="0" via=":J7_2_0" tl="J7" linkIndex="2" dir="r" state="O"/>
    <connection from="E12" to="E13" fromLane="0" toLane="0" via=":J7_3_0" tl="J7" linkIndex="3" dir="s" state="O"/>
    <connection from="E2" to="E3" fromLane="0" toLane="0" via=":J3_0_0" tl="J3" linkIndex="0" dir="s" state="O"/>
    <connection from="E2" to="E12" fromLane="0" toLane="0" via=":J3_1_0" tl="J3" linkIndex="1" dir="l" state="O"/>
    <connection from="E3" to="E4" fromLane="0" toLane="0" via=":J4_0_0" dir="s" state="M"/>
    <connection from="E5" to="E6" fromLane="0" toLane="0" via=":J6_2_0" tl="J6" linkIndex="2" dir="r" state="o"/>
    <connection from="E5" to="E10" fromLane="0" toLane="0" via=":J6_3_0" tl="J6" linkIndex="3" dir="s" state="o"/>
    <connection from="E6" to="E7" fromLane="0" toLane="0" via=":J7_0_0" tl="J7" linkIndex="0" dir="r" state="o"/>
    <connection from="E6" to="E13" fromLane="0" toLane="0" via=":J7_1_0" tl="J7" linkIndex="1" dir="l" state="o"/>
    <connection from="E7" to="E4" fromLane="0" toLane="1" via=":J4_1_0" dir="l" state="M"/>
    <connection from="E8" to="E2" fromLane="0" toLane="0" via=":J2_2_0" tl="J2" linkIndex="2" dir="r" state="o"/>
    <connection from="E8" to="E9" fromLane="0" toLane="0" via=":J2_3_0" tl="J2" linkIndex="3" dir="s" state="o"/>
    <connection from="E9" to="E6" fromLane="0" toLane="0" via=":J6_0_0" tl="J6" linkIndex="0" dir="r" state="O"/>
    <connection from="E9" to="E10" fromLane="0" toLane="0" via=":J6_1_0" tl="J6" linkIndex="1" dir="s" state="O"/>

    <connection from=":J1_0" to="E1" fromLane="0" toLane="0" dir="s" state="M"/>
    <connection from=":J1_1" to="E5" fromLane="0" toLane="0" dir="l" state="M"/>
    <connection from=":J2_0" to="E2" fromLane="0" toLane="0" dir="s" state="M"/>
    <connection from=":J2_1" to="E9" fromLane="0" toLane="0" dir="l" state="M"/>
    <connection from=":J2_2" to="E2" fromLane="0" toLane="0" dir="r" state="M"/>
    <connection from=":J2_3" to="E9" fromLane="0" toLane="0" dir="s" state="M"/>
    <connection from=":J3_0" to="E3" fromLane="0" toLane="0" dir="s" state="M"/>
    <connection from=":J3_1" to="E12" fromLane="0" toLane="0" dir="l" state="M"/>
    <connection from=":J3_2" to="E3" fromLane="0" toLane="0" dir="r" state="M"/>
    <connection from=":J3_3" to="E12" fromLane="0" toLane="0" dir="s" state="M"/>
    <connection from=":J4_0" to="E4" fromLane="0" toLane="0" dir="s" state="M"/>
    <connection from=":J4_1" to="E4" fromLane="0" toLane="1" dir="l" state="M"/>
    <connection from=":J6_0" to="E6" fromLane="0" toLane="0" dir="r" state="M"/>
    <connection from=":J6_1" to="E10" fromLane="0" toLane="0" dir="s" state="M"/>
    <connection from=":J6_2" to="E6" fromLane="0" toLane="0" dir="r" state="M"/>
    <connection from=":J6_3" to="E10" fromLane="0" toLane="0" dir="s" state="M"/>
    <connection from=":J7_0" to="E7" fromLane="0" toLane="0" dir="r" state="M"/>
    <connection from=":J7_1" to="E13" fromLane="0" toLane="0" dir="l" state="M"/>
    <connection from=":J7_2" to="E7" fromLane="0" toLane="0" dir="r" state="M"/>
    <connection from=":J7_3" to="E13" fromLane="0" toLane="0" dir="s" state="M"/>

</net>
