<?xml version="1.0" encoding="UTF-8"?>

<!-- generated on 2023-06-21 17:03:32 by Eclipse SUMO netedit Version v1_14_1+2245-8aa96d847b0
<configuration xmlns:xsi="http://www.w3.org/2001/XMLSchema-instance" xsi:noNamespaceSchemaLocation="http://sumo.dlr.de/xsd/netconvertConfiguration.xsd">

    <input>
        <sumo-net-file value="/Users/guanghu/Desktop/changelight.net.xml"/>
    </input>

    <output>
        <output-file value="/Users/guanghu/Desktop/changelight.net.xml"/>
    </output>

    <processing>
        <geometry.min-radius.fix.railways value="false"/>
        <geometry.max-grade.fix value="false"/>
        <offset.disable-normalization value="true"/>
        <lefthand value="0"/>
    </processing>

    <junctions>
        <no-turnarounds value="true"/>
        <junctions.corner-detail value="5"/>
        <junctions.limit-turn-speed value="5.50"/>
        <rectangular-lane-cut value="0"/>
    </junctions>

    <pedestrian>
        <walkingareas value="0"/>
    </pedestrian>

</configuration>
-->

<net version="1.9" junctionCornerDetail="5" limitTurnSpeed="5.50" xmlns:xsi="http://www.w3.org/2001/XMLSchema-instance" xsi:noNamespaceSchemaLocation="http://sumo.dlr.de/xsd/net_file.xsd">

    <location netOffset="0.00,0.00" convBoundary="-1000.00,-9100.00,4000.00,100.00" origBoundary="-10000000000.00,-10000000000.00,10000000000.00,10000000000.00" projParameter="!"/>

    <edge id=":J1_0" function="internal">
        <lane id=":J1_0_0" index="0" speed="20.00" length="7.84" shape="-1.60,1.66 -1.60,-6.18"/>
    </edge>
    <edge id=":J1_1" function="internal">
        <lane id=":J1_1_0" index="0" speed="9.11" length="7.49" shape="-1.60,1.66 -1.36,0.40 -0.62,-1.06 0.60,-2.71 2.30,-4.57"/>
    </edge>
    <edge id=":J2_0" function="internal">
        <lane id=":J2_0_0" index="0" speed="20.00" length="11.20" shape="-1.60,-2996.00 -1.60,-3007.20"/>
    </edge>
    <edge id=":J2_1" function="internal">
        <lane id=":J2_1_0" index="0" speed="6.51" length="9.03" shape="-1.60,-2996.00 -1.25,-2998.45 -0.20,-3000.20 1.55,-3001.25 4.00,-3001.60"/>
    </edge>
    <edge id=":J2_2" function="internal">
        <lane id=":J2_2_0" index="0" speed="6.51" length="9.03" shape="-7.20,-3001.60 -4.75,-3001.95 -3.00,-3003.00 -1.95,-3004.75 -1.60,-3007.20"/>
    </edge>
    <edge id=":J2_3" function="internal">
        <lane id=":J2_3_0" index="0" speed="13.89" length="11.20" shape="-7.20,-3001.60 4.00,-3001.60"/>
    </edge>
    <edge id=":J3_0" function="internal">
        <lane id=":J3_0_0" index="0" speed="20.00" length="11.20" shape="-1.60,-5996.00 -1.60,-6007.20"/>
    </edge>
    <edge id=":J3_1" function="internal">
        <lane id=":J3_1_0" index="0" speed="6.51" length="9.03" shape="-1.60,-5996.00 -1.25,-5998.45 -0.20,-6000.20 1.55,-6001.25 4.00,-6001.60"/>
    </edge>
    <edge id=":J3_2" function="internal">
        <lane id=":J3_2_0" index="0" speed="6.51" length="9.03" shape="-7.20,-6001.60 -4.75,-6001.95 -3.00,-6003.00 -1.95,-6004.75 -1.60,-6007.20"/>
    </edge>
    <edge id=":J3_3" function="internal">
        <lane id=":J3_3_0" index="0" speed="13.89" length="11.20" shape="-7.20,-6001.60 4.00,-6001.60"/>
    </edge>
    <edge id=":J4_0" function="internal">
        <lane id=":J4_0_0" index="0" speed="20.00" length="8.66" shape="-1.60,-8993.82 -2.10,-8996.23 -3.20,-8997.74 -4.30,-8999.24 -4.80,-9001.66"/>
    </edge>
    <edge id=":J4_1" function="internal">
        <lane id=":J4_1_0" index="0" speed="9.11" length="7.49" shape="2.30,-8995.43 0.60,-8997.29 -0.62,-8998.94 -1.36,-9000.40 -1.60,-9001.66"/>
    </edge>
    <edge id=":J6_0" function="internal">
        <lane id=":J6_0_0" index="0" speed="6.85" length="10.12" shape="2991.47,-3001.60 2994.50,-3001.95 2996.67,-3003.00 2997.97,-3004.75 2998.40,-3007.20"/>
    </edge>
    <edge id=":J6_1" function="internal">
        <lane id=":J6_1_0" index="0" speed="13.89" length="12.53" shape="2991.47,-3001.60 3004.00,-3001.60"/>
    </edge>
    <edge id=":J6_2" function="internal">
        <lane id=":J6_2_0" index="0" speed="11.60" length="12.40" shape="2993.78,-2996.04 2995.80,-2998.47 2997.24,-3001.14 2998.11,-3004.05 2998.40,-3007.20"/>
    </edge>
    <edge id=":J6_3" function="internal">
        <lane id=":J6_3_0" index="0" speed="11.45" length="12.06" shape="2993.78,-2996.04 2996.16,-2998.40 2998.34,-3000.15 3000.79,-3001.23 3004.00,-3001.60"/>
    </edge>
    <edge id=":J7_0" function="internal">
        <lane id=":J7_0_0" index="0" speed="12.23" length="13.83" shape="2998.40,-5996.00 2997.91,-5997.95 2996.44,-6000.46 2994.00,-6003.53 2990.58,-6007.16"/>
    </edge>
    <edge id=":J7_1" function="internal">
        <lane id=":J7_1_0" index="0" speed="6.51" length="9.03" shape="2998.40,-5996.00 2998.75,-5998.45 2999.80,-6000.20 3001.55,-6001.25 3004.00,-6001.60"/>
    </edge>
    <edge id=":J7_2" function="internal">
        <lane id=":J7_2_0" index="0" speed="5.47" length="9.74" shape="2988.27,-6001.60 2991.37,-6001.95 2992.78,-6002.99 2992.52,-6004.73 2990.58,-6007.16"/>
    </edge>
    <edge id=":J7_3" function="internal">
        <lane id=":J7_3_0" index="0" speed="13.89" length="15.73" shape="2988.27,-6001.60 3004.00,-6001.60"/>
    </edge>

    <edge id="E0" from="J0" to="J1" priority="-1">
        <lane id="E0_0" index="0" speed="20.00" length="98.34" shape="-1.60,100.00 -1.60,1.66"/>
    </edge>
    <edge id="E1" from="J1" to="J2" priority="-1">
        <lane id="E1_0" index="0" speed="20.00" length="2989.82" shape="-1.60,-6.18 -1.60,-2996.00"/>
    </edge>
    <edge id="E10" from="J6" to="J9" priority="-1">
        <lane id="E10_0" index="0" speed="13.89" length="996.00" shape="3004.00,-3001.60 4000.00,-3001.60"/>
    </edge>
    <edge id="E11" from="J10" to="J3" priority="-1">
        <lane id="E11_0" index="0" speed="13.89" length="992.80" shape="-1000.00,-6001.60 -7.20,-6001.60"/>
    </edge>
    <edge id="E12" from="J3" to="J7" priority="-1">
        <lane id="E12_0" index="0" speed="13.89" length="2984.27" shape="4.00,-6001.60 2988.27,-6001.60"/>
    </edge>
    <edge id="E13" from="J7" to="J11" priority="-1">
        <lane id="E13_0" index="0" speed="13.89" length="996.00" shape="3004.00,-6001.60 4000.00,-6001.60"/>
    </edge>
    <edge id="E2" from="J2" to="J3" priority="-1">
        <lane id="E2_0" index="0" speed="20.00" length="2988.80" shape="-1.60,-3007.20 -1.60,-5996.00"/>
    </edge>
    <edge id="E3" from="J3" to="J4" priority="-1">
        <lane id="E3_0" index="0" speed="20.00" length="2986.62" shape="-1.60,-6007.20 -1.60,-8993.82"/>
    </edge>
    <edge id="E4" from="J4" to="J5" priority="-1">
        <lane id="E4_0" index="0" speed="20.00" length="98.34" shape="-4.80,-9001.66 -4.80,-9100.00"/>
        <lane id="E4_1" index="1" speed="20.00" length="98.34" shape="-1.60,-9001.66 -1.60,-9100.00"/>
    </edge>
    <edge id="E5" from="J1" to="J6" priority="-1">
        <lane id="E5_0" index="0" speed="20.00" length="4230.58" shape="2.30,-4.57 2993.78,-2996.04"/>
    </edge>
    <edge id="E6" from="J6" to="J7" priority="-1">
        <lane id="E6_0" index="0" speed="20.00" length="2988.80" shape="2998.40,-3007.20 2998.40,-5996.00"/>
    </edge>
    <edge id="E7" from="J7" to="J4" priority="-1">
        <lane id="E7_0" index="0" speed="20.00" length="4226.06" shape="2990.58,-6007.16 2.30,-8995.43"/>
    </edge>
    <edge id="E8" from="J8" to="J2" priority="-1">
        <lane id="E8_0" index="0" speed="13.89" length="992.80" shape="-1000.00,-3001.60 -7.20,-3001.60"/>
    </edge>
    <edge id="E9" from="J2" to="J6" priority="-1">
        <lane id="E9_0" index="0" speed="13.89" length="2987.47" shape="4.00,-3001.60 2991.47,-3001.60"/>
    </edge>

    <tlLogic id="J2" type="static" programID="0" offset="0">
        <phase duration="42" state="GGrr"/>
        <phase duration="3"  state="yyrr"/>
        <phase duration="42" state="rrGG"/>
        <phase duration="3"  state="rryy"/>
    </tlLogic>
    <tlLogic id="J3" type="static" programID="0" offset="0">
        <phase duration="42" state="GGrr"/>
        <phase duration="3"  state="yyrr"/>
        <phase duration="42" state="rrGG"/>
        <phase duration="3"  state="rryy"/>
    </tlLogic>
    <tlLogic id="J6" type="static" programID="0" offset="0">
        <phase duration="42" state="GGrr"/>
        <phase duration="3"  state="yyrr"/>
        <phase duration="42" state="rrGG"/>
        <phase duration="3"  state="rryy"/>
    </tlLogic>
    <tlLogic id="J7" type="static" programID="0" offset="0">
        <phase duration="42" state="GGrr"/>
        <phase duration="3"  state="yyrr"/>
        <phase duration="42" state="rrGG"/>
        <phase duration="3"  state="rryy"/>
    </tlLogic>

    <junction id="J0" type="dead_end" x="0.00" y="100.00" incLanes="" intLanes="" shape="0.00,100.00 -3.20,100.00"/>
    <junction id="J1" type="priority" x="0.00" y="0.00" incLanes="E0_0" intLanes=":J1_0_0 :J1_1_0" shape="-3.20,1.66 0.00,1.66 0.38,0.35 0.86,-0.44 1.53,-1.34 2.38,-2.34 3.43,-3.43 1.17,-5.70 0.52,-5.23 0.29,-5.23 0.13,-5.39 0.03,-5.71 0.00,-6.18 -3.20,-6.18">
        <request index="0" response="00" foes="00" cont="0"/>
        <request index="1" response="00" foes="00" cont="0"/>
    </junction>
    <junction id="J10" type="dead_end" x="-1000.00" y="-6000.00" incLanes="" intLanes="" shape="-1000.00,-6000.00 -1000.00,-6003.20"/>
    <junction id="J11" type="dead_end" x="4000.00" y="-6000.00" incLanes="E13_0" intLanes="" shape="4000.00,-6003.20 4000.00,-6000.00"/>
    <junction id="J2" type="traffic_light" x="0.00" y="-3000.00" incLanes="E1_0 E8_0" intLanes=":J2_0_0 :J2_1_0 :J2_2_0 :J2_3_0" shape="-3.20,-2996.00 0.00,-2996.00 0.44,-2998.22 1.00,-2999.00 1.78,-2999.56 2.78,-2999.89 4.00,-3000.00 4.00,-3003.20 1.78,-3003.64 1.00,-3004.20 0.44,-3004.98 0.11,-3005.98 0.00,-3007.20 -3.20,-3007.20 -3.64,-3004.98 -4.20,-3004.20 -4.98,-3003.64 -5.98,-3003.31 -7.20,-3003.20 -7.20,-3000.00 -4.98,-2999.56 -4.20,-2999.00 -3.64,-2998.22 -3.31,-2997.22">
        <request index="0" response="0000" foes="1100" cont="0"/>
        <request index="1" response="0000" foes="1000" cont="0"/>
        <request index="2" response="0001" foes="0001" cont="0"/>
        <request index="3" response="0011" foes="0011" cont="0"/>
    </junction>
    <junction id="J3" type="traffic_light" x="0.00" y="-6000.00" incLanes="E2_0 E11_0" intLanes=":J3_0_0 :J3_1_0 :J3_2_0 :J3_3_0" shape="-3.20,-5996.00 0.00,-5996.00 0.44,-5998.22 1.00,-5999.00 1.78,-5999.56 2.78,-5999.89 4.00,-6000.00 4.00,-6003.20 1.78,-6003.64 1.00,-6004.20 0.44,-6004.98 0.11,-6005.98 0.00,-6007.20 -3.20,-6007.20 -3.64,-6004.98 -4.20,-6004.20 -4.98,-6003.64 -5.98,-6003.31 -7.20,-6003.20 -7.20,-6000.00 -4.98,-5999.56 -4.20,-5999.00 -3.64,-5998.22 -3.31,-5997.22">
        <request index="0" response="0000" foes="1100" cont="0"/>
        <request index="1" response="0000" foes="1000" cont="0"/>
        <request index="2" response="0001" foes="0001" cont="0"/>
        <request index="3" response="0011" foes="0011" cont="0"/>
    </junction>
    <junction id="J4" type="priority" x="0.00" y="-9000.00" incLanes="E3_0 E7_0" intLanes=":J4_0_0 :J4_1_0" shape="-3.20,-8993.82 0.00,-8993.82 0.13,-8994.61 0.29,-8994.77 0.52,-8994.77 0.81,-8994.61 1.17,-8994.30 3.43,-8996.57 1.53,-8998.66 0.86,-8999.56 0.38,-9000.35 0.10,-9001.06 0.00,-9001.66 -6.40,-9001.66 -5.57,-8998.68 -4.03,-8996.79 -3.44,-8995.57">
        <request index="0" response="00" foes="00" cont="0"/>
        <request index="1" response="00" foes="00" cont="0"/>
    </junction>
    <junction id="J5" type="dead_end" x="0.00" y="-9100.00" incLanes="E4_0 E4_1" intLanes="" shape="-6.40,-9100.00 0.00,-9100.00"/>
    <junction id="J6" type="traffic_light" x="3000.00" y="-3000.00" incLanes="E9_0 E5_0" intLanes=":J6_0_0 :J6_1_0 :J6_2_0 :J6_3_0" shape="3004.00,-3000.00 3004.00,-3003.20 3001.78,-3003.64 3001.00,-3004.20 3000.44,-3004.98 3000.11,-3005.98 3000.00,-3007.20 2996.80,-3007.20 2996.21,-3004.98 2995.47,-3004.20 2994.43,-3003.64 2993.10,-3003.31 2991.47,-3003.20 2991.47,-3000.00 2993.38,-2999.69 2993.77,-2999.29 2993.77,-2998.74 2993.40,-2998.04 2992.65,-2997.17 2994.91,-2994.91 2996.58,-2996.46 2998.18,-2997.74 2999.73,-2998.73 3001.21,-2999.43 3002.64,-2999.86">
        <request index="0" response="0000" foes="0100" cont="0"/>
        <request index="1" response="0000" foes="1100" cont="0"/>
        <request index="2" response="0011" foes="0011" cont="0"/>
        <request index="3" response="0010" foes="0010" cont="0"/>
    </junction>
    <junction id="J7" type="traffic_light" x="3000.00" y="-6000.00" incLanes="E6_0 E12_0" intLanes=":J7_0_0 :J7_1_0 :J7_2_0 :J7_3_0" shape="2996.80,-5996.00 3000.00,-5996.00 3000.44,-5998.22 3001.00,-5999.00 3001.78,-5999.56 3002.78,-5999.89 3004.00,-6000.00 3004.00,-6003.20 3001.66,-6003.34 2999.43,-6003.77 2997.33,-6004.47 2995.34,-6005.46 2993.46,-6006.74 2991.71,-6008.29 2989.45,-6006.03 2990.57,-6004.46 2990.57,-6003.91 2990.18,-6003.51 2989.42,-6003.28 2988.27,-6003.20 2988.27,-6000.00 2990.88,-5999.89 2993.01,-5999.56 2994.67,-5999.00 2995.85,-5998.22 2996.56,-5997.22">
        <request index="0" response="1100" foes="1100" cont="0"/>
        <request index="1" response="1000" foes="1000" cont="0"/>
        <request index="2" response="0000" foes="0001" cont="0"/>
        <request index="3" response="0000" foes="0011" cont="0"/>
    </junction>
    <junction id="J8" type="dead_end" x="-1000.00" y="-3000.00" incLanes="" intLanes="" shape="-1000.00,-3000.00 -1000.00,-3003.20"/>
    <junction id="J9" type="dead_end" x="4000.00" y="-3000.00" incLanes="E10_0" intLanes="" shape="4000.00,-3003.20 4000.00,-3000.00"/>

    <connection from="E0" to="E1" fromLane="0" toLane="0" via=":J1_0_0" dir="s" state="M"/>
    <connection from="E0" to="E5" fromLane="0" toLane="0" via=":J1_1_0" dir="l" state="M"/>
    <connection from="E1" to="E2" fromLane="0" toLane="0" via=":J2_0_0" tl="J2" linkIndex="0" dir="s" state="O"/>
    <connection from="E1" to="E9" fromLane="0" toLane="0" via=":J2_1_0" tl="J2" linkIndex="1" dir="l" state="O"/>
    <connection from="E11" to="E3" fromLane="0" toLane="0" via=":J3_2_0" tl="J3" linkIndex="2" dir="r" state="o"/>
    <connection from="E11" to="E12" fromLane="0" toLane="0" via=":J3_3_0" tl="J3" linkIndex="3" dir="s" state="o"/>
    <connection from="E12" to="E7" fromLane="0" toLane="0" via=":J7_2_0" tl="J7" linkIndex="2" dir="r" state="O"/>
    <connection from="E12" to="E13" fromLane="0" toLane="0" via=":J7_3_0" tl="J7" linkIndex="3" dir="s" state="O"/>
    <connection from="E2" to="E3" fromLane="0" toLane="0" via=":J3_0_0" tl="J3" linkIndex="0" dir="s" state="O"/>
    <connection from="E2" to="E12" fromLane="0" toLane="0" via=":J3_1_0" tl="J3" linkIndex="1" dir="l" state="O"/>
    <connection from="E3" to="E4" fromLane="0" toLane="0" via=":J4_0_0" dir="s" state="M"/>
    <connection from="E5" to="E6" fromLane="0" toLane="0" via=":J6_2_0" tl="J6" linkIndex="2" dir="r" state="o"/>
    <connection from="E5" to="E10" fromLane="0" toLane="0" via=":J6_3_0" tl="J6" linkIndex="3" dir="l" state="o"/>
    <connection from="E6" to="E7" fromLane="0" toLane="0" via=":J7_0_0" tl="J7" linkIndex="0" dir="r" state="o"/>
    <connection from="E6" to="E13" fromLane="0" toLane="0" via=":J7_1_0" tl="J7" linkIndex="1" dir="l" state="o"/>
    <connection from="E7" to="E4" fromLane="0" toLane="1" via=":J4_1_0" dir="l" state="M"/>
    <connection from="E8" to="E2" fromLane="0" toLane="0" via=":J2_2_0" tl="J2" linkIndex="2" dir="r" state="o"/>
    <connection from="E8" to="E9" fromLane="0" toLane="0" via=":J2_3_0" tl="J2" linkIndex="3" dir="s" state="o"/>
    <connection from="E9" to="E6" fromLane="0" toLane="0" via=":J6_0_0" tl="J6" linkIndex="0" dir="r" state="O"/>
    <connection from="E9" to="E10" fromLane="0" toLane="0" via=":J6_1_0" tl="J6" linkIndex="1" dir="s" state="O"/>

    <connection from=":J1_0" to="E1" fromLane="0" toLane="0" dir="s" state="M"/>
    <connection from=":J1_1" to="E5" fromLane="0" toLane="0" dir="l" state="M"/>
    <connection from=":J2_0" to="E2" fromLane="0" toLane="0" dir="s" state="M"/>
    <connection from=":J2_1" to="E9" fromLane="0" toLane="0" dir="l" state="M"/>
    <connection from=":J2_2" to="E2" fromLane="0" toLane="0" dir="r" state="M"/>
    <connection from=":J2_3" to="E9" fromLane="0" toLane="0" dir="s" state="M"/>
    <connection from=":J3_0" to="E3" fromLane="0" toLane="0" dir="s" state="M"/>
    <connection from=":J3_1" to="E12" fromLane="0" toLane="0" dir="l" state="M"/>
    <connection from=":J3_2" to="E3" fromLane="0" toLane="0" dir="r" state="M"/>
    <connection from=":J3_3" to="E12" fromLane="0" toLane="0" dir="s" state="M"/>
    <connection from=":J4_0" to="E4" fromLane="0" toLane="0" dir="s" state="M"/>
    <connection from=":J4_1" to="E4" fromLane="0" toLane="1" dir="l" state="M"/>
    <connection from=":J6_0" to="E6" fromLane="0" toLane="0" dir="r" state="M"/>
    <connection from=":J6_1" to="E10" fromLane="0" toLane="0" dir="s" state="M"/>
    <connection from=":J6_2" to="E6" fromLane="0" toLane="0" dir="r" state="M"/>
    <connection from=":J6_3" to="E10" fromLane="0" toLane="0" dir="l" state="M"/>
    <connection from=":J7_0" to="E7" fromLane="0" toLane="0" dir="r" state="M"/>
    <connection from=":J7_1" to="E13" fromLane="0" toLane="0" dir="l" state="M"/>
    <connection from=":J7_2" to="E7" fromLane="0" toLane="0" dir="r" state="M"/>
    <connection from=":J7_3" to="E13" fromLane="0" toLane="0" dir="s" state="M"/>

</net>
