<?xml version="1.0" encoding="UTF-8"?>

<!-- generated on 2023-06-21 12:47:17 by Eclipse SUMO netedit Version v1_14_1+2245-8aa96d847b0
<configuration xmlns:xsi="http://www.w3.org/2001/XMLSchema-instance" xsi:noNamespaceSchemaLocation="http://sumo.dlr.de/xsd/netconvertConfiguration.xsd">

    <output>
        <output-file value="/Users/guanghu/Desktop/realroute.net.xml"/>
    </output>

    <processing>
        <offset.disable-normalization value="true"/>
    </processing>

    <junctions>
        <no-turnarounds value="true"/>
    </junctions>

</configuration>
-->

<net version="1.9" junctionCornerDetail="5" limitTurnSpeed="5.50" xmlns:xsi="http://www.w3.org/2001/XMLSchema-instance" xsi:noNamespaceSchemaLocation="http://sumo.dlr.de/xsd/net_file.xsd">

    <location netOffset="0.00,0.00" convBoundary="-20.80,-276.97,169.12,133.25" origBoundary="10000000000.00,10000000000.00,-10000000000.00,-10000000000.00" projParameter="!"/>

    <edge id=":J10_0" function="internal">
        <lane id=":J10_0_0" index="0" speed="8.69" length="10.24" shape="109.15,-192.28 108.85,-195.21 108.01,-197.63 106.65,-199.57 104.76,-201.01"/>
    </edge>
    <edge id=":J10_1" function="internal">
        <lane id=":J10_1_0" index="0" speed="7.96" length="14.27" shape="109.15,-192.28 109.66,-196.17 111.30,-198.94 114.06,-200.58 117.95,-201.10"/>
    </edge>
    <edge id=":J10_2" function="internal">
        <lane id=":J10_2_0" index="0" speed="6.46" length="9.03" shape="117.92,-197.90 115.46,-197.57 113.71,-196.53 112.67,-194.78 112.35,-192.32"/>
    </edge>
    <edge id=":J10_3" function="internal">
        <lane id=":J10_3_0" index="0" speed="13.89" length="13.67" shape="117.92,-197.90 114.37,-198.07 111.10,-198.56 107.96,-199.51 104.76,-201.01"/>
    </edge>
    <edge id=":J10_4" function="internal">
        <lane id=":J10_4_0" index="0" speed="13.89" length="12.12" shape="106.31,-203.81 109.27,-202.37 111.89,-201.56 114.63,-201.20 117.95,-201.10"/>
    </edge>
    <edge id=":J10_5" function="internal">
        <lane id=":J10_5_0" index="0" speed="9.95" length="3.26" shape="106.31,-203.81 108.91,-201.86"/>
    </edge>
    <edge id=":J10_6" function="internal">
        <lane id=":J10_6_0" index="0" speed="9.95" length="10.37" shape="108.91,-201.86 110.79,-199.29 111.94,-196.11 112.35,-192.32"/>
    </edge>
    <edge id=":J2_0" function="internal">
        <lane id=":J2_0_0" index="0" speed="6.50" length="9.03" shape="21.39,114.90 21.04,112.45 19.99,110.70 18.24,109.65 15.79,109.31"/>
    </edge>
    <edge id=":J2_1" function="internal">
        <lane id=":J2_1_0" index="0" speed="13.89" length="15.79" shape="21.39,114.90 21.39,99.11"/>
    </edge>
    <edge id=":J2_2" function="internal">
        <lane id=":J2_2_0" index="0" speed="9.77" length="4.09" shape="21.39,114.90 21.96,111.05 22.05,110.87"/>
    </edge>
    <edge id=":J2_12" function="internal">
        <lane id=":J2_12_0" index="0" speed="9.77" length="11.76" shape="22.05,110.87 23.67,107.82 26.51,105.22 30.50,103.24"/>
    </edge>
    <edge id=":J2_3" function="internal">
        <lane id=":J2_3_0" index="0" speed="8.53" length="11.92" shape="31.60,106.24 28.53,107.74 26.34,109.69 25.03,112.07 24.59,114.90"/>
    </edge>
    <edge id=":J2_4" function="internal">
        <lane id=":J2_4_0" index="0" speed="13.89" length="16.17" shape="31.60,106.24 27.85,107.44 23.81,108.41 19.71,109.07 15.79,109.31"/>
    </edge>
    <edge id=":J2_5" function="internal">
        <lane id=":J2_5_0" index="0" speed="7.52" length="4.89" shape="31.60,106.24 27.13,107.20 26.82,107.11"/>
    </edge>
    <edge id=":J2_13" function="internal">
        <lane id=":J2_13_0" index="0" speed="7.52" length="10.85" shape="26.82,107.11 23.94,106.33 22.03,103.63 21.39,99.11"/>
    </edge>
    <edge id=":J2_6" function="internal">
        <lane id=":J2_6_0" index="0" speed="5.88" length="9.11" shape="24.59,99.11 24.96,101.73 26.07,103.29 27.91,103.79 30.50,103.24"/>
    </edge>
    <edge id=":J2_7" function="internal">
        <lane id=":J2_7_0" index="0" speed="13.89" length="15.79" shape="24.59,99.11 24.59,114.90"/>
    </edge>
    <edge id=":J2_8" function="internal">
        <lane id=":J2_8_0" index="0" speed="8.30" length="4.71" shape="24.59,99.11 24.04,103.56 23.94,103.76"/>
    </edge>
    <edge id=":J2_14" function="internal">
        <lane id=":J2_14_0" index="0" speed="8.30" length="10.62" shape="23.94,103.76 22.39,106.75 19.64,108.66 15.79,109.31"/>
    </edge>
    <edge id=":J2_9" function="internal">
        <lane id=":J2_9_0" index="0" speed="6.88" length="10.19" shape="15.78,106.11 18.23,105.67 19.99,104.35 21.04,102.17 21.39,99.11"/>
    </edge>
    <edge id=":J2_10" function="internal">
        <lane id=":J2_10_0" index="0" speed="13.89" length="15.07" shape="15.78,106.11 19.53,105.90 23.25,105.31 26.92,104.41 30.50,103.24"/>
    </edge>
    <edge id=":J2_11" function="internal">
        <lane id=":J2_11_0" index="0" speed="8.00" length="3.57" shape="15.78,106.11 19.31,106.60"/>
    </edge>
    <edge id=":J2_15" function="internal">
        <lane id=":J2_15_0" index="0" speed="8.00" length="10.64" shape="19.31,106.60 19.63,106.65 22.39,108.29 24.04,111.04 24.59,114.90"/>
    </edge>
    <edge id=":J3_0" function="internal">
        <lane id=":J3_0_0" index="0" speed="6.43" length="9.03" shape="21.39,8.12 21.04,5.66 19.98,3.93 18.21,2.93 15.74,2.67"/>
    </edge>
    <edge id=":J3_1" function="internal">
        <lane id=":J3_1_0" index="0" speed="13.89" length="14.63" shape="21.39,8.12 21.43,-6.51"/>
    </edge>
    <edge id=":J3_2" function="internal">
        <lane id=":J3_2_0" index="0" speed="8.13" length="4.13" shape="21.39,8.12 21.95,4.22 22.05,4.05"/>
    </edge>
    <edge id=":J3_12" function="internal">
        <lane id=":J3_12_0" index="0" speed="8.13" length="10.27" shape="22.05,4.05 23.61,1.40 26.37,-0.33 30.25,-0.99"/>
    </edge>
    <edge id=":J3_3" function="internal">
        <lane id=":J3_3_0" index="0" speed="6.67" length="9.34" shape="30.33,2.21 27.82,2.64 26.03,3.76 24.95,5.59 24.59,8.12"/>
    </edge>
    <edge id=":J3_4" function="internal">
        <lane id=":J3_4_0" index="0" speed="13.89" length="14.60" shape="30.33,2.21 15.74,2.67"/>
    </edge>
    <edge id=":J3_5" function="internal">
        <lane id=":J3_5_0" index="0" speed="7.95" length="4.05" shape="30.33,2.21 26.42,1.75 26.32,1.70"/>
    </edge>
    <edge id=":J3_13" function="internal">
        <lane id=":J3_13_0" index="0" speed="7.95" length="10.26" shape="26.32,1.70 23.63,0.15 21.97,-2.61 21.43,-6.51"/>
    </edge>
    <edge id=":J3_6" function="internal">
        <lane id=":J3_6_0" index="0" speed="6.44" length="9.03" shape="24.63,-6.49 24.97,-4.03 26.02,-2.29 27.78,-1.28 30.25,-0.99"/>
    </edge>
    <edge id=":J3_7" function="internal">
        <lane id=":J3_7_0" index="0" speed="13.89" length="14.61" shape="24.63,-6.49 24.59,8.12"/>
    </edge>
    <edge id=":J3_8" function="internal">
        <lane id=":J3_8_0" index="0" speed="8.19" length="4.09" shape="24.63,-6.49 24.06,-2.61 23.97,-2.47"/>
    </edge>
    <edge id=":J3_14" function="internal">
        <lane id=":J3_14_0" index="0" speed="8.19" length="10.34" shape="23.97,-2.47 22.38,0.22 19.61,1.97 15.74,2.67"/>
    </edge>
    <edge id=":J3_9" function="internal">
        <lane id=":J3_9_0" index="0" speed="6.73" length="9.42" shape="15.62,-0.53 18.15,-0.98 19.96,-2.13 21.05,-3.97 21.43,-6.51"/>
    </edge>
    <edge id=":J3_10" function="internal">
        <lane id=":J3_10_0" index="0" speed="13.89" length="14.64" shape="15.62,-0.53 30.25,-0.99"/>
    </edge>
    <edge id=":J3_11" function="internal">
        <lane id=":J3_11_0" index="0" speed="7.94" length="4.14" shape="15.62,-0.53 19.54,-0.11 19.71,-0.02"/>
    </edge>
    <edge id=":J3_15" function="internal">
        <lane id=":J3_15_0" index="0" speed="7.94" length="10.20" shape="19.71,-0.02 22.35,1.47 24.03,4.21 24.59,8.12"/>
    </edge>
    <edge id=":J4_0" function="internal">
        <lane id=":J4_0_0" index="0" speed="6.60" length="9.18" shape="30.86,-117.39 28.37,-116.99 26.58,-115.91 25.51,-114.13 25.14,-111.66"/>
    </edge>
    <edge id=":J4_1" function="internal">
        <lane id=":J4_1_0" index="0" speed="13.89" length="14.51" shape="30.86,-117.39 16.35,-117.31"/>
    </edge>
    <edge id=":J4_2" function="internal">
        <lane id=":J4_2_0" index="0" speed="7.97" length="4.17" shape="30.86,-117.39 26.97,-117.88 26.76,-118.00"/>
    </edge>
    <edge id=":J4_12" function="internal">
        <lane id=":J4_12_0" index="0" speed="7.97" length="10.10" shape="26.76,-118.00 24.20,-119.50 22.53,-122.25 21.98,-126.13"/>
    </edge>
    <edge id=":J4_3" function="internal">
        <lane id=":J4_3_0" index="0" speed="6.47" length="9.03" shape="25.18,-126.12 25.53,-123.66 26.59,-121.92 28.34,-120.90 30.80,-120.58"/>
    </edge>
    <edge id=":J4_4" function="internal">
        <lane id=":J4_4_0" index="0" speed="13.89" length="14.46" shape="25.18,-126.12 25.14,-111.66"/>
    </edge>
    <edge id=":J4_5" function="internal">
        <lane id=":J4_5_0" index="0" speed="8.00" length="4.10" shape="25.18,-126.12 24.63,-122.25 24.53,-122.09"/>
    </edge>
    <edge id=":J4_13" function="internal">
        <lane id=":J4_13_0" index="0" speed="8.00" length="10.14" shape="24.53,-122.09 22.97,-119.49 20.21,-117.84 16.35,-117.31"/>
    </edge>
    <edge id=":J4_6" function="internal">
        <lane id=":J4_6_0" index="0" speed="6.51" length="9.07" shape="16.37,-120.51 18.82,-120.85 20.58,-121.90 21.63,-123.66 21.98,-126.13"/>
    </edge>
    <edge id=":J4_7" function="internal">
        <lane id=":J4_7_0" index="0" speed="13.89" length="14.44" shape="16.37,-120.51 30.80,-120.58"/>
    </edge>
    <edge id=":J4_8" function="internal">
        <lane id=":J4_8_0" index="0" speed="8.01" length="3.90" shape="16.37,-120.51 20.22,-119.94"/>
    </edge>
    <edge id=":J4_14" function="internal">
        <lane id=":J4_14_0" index="0" speed="8.01" length="10.31" shape="20.22,-119.94 22.97,-118.27 24.61,-115.51 25.14,-111.66"/>
    </edge>
    <edge id=":J4_9" function="internal">
        <lane id=":J4_9_0" index="0" speed="6.51" length="9.05" shape="21.94,-111.68 21.60,-114.13 20.55,-115.88 18.80,-116.94 16.35,-117.31"/>
    </edge>
    <edge id=":J4_10" function="internal">
        <lane id=":J4_10_0" index="0" speed="13.89" length="14.45" shape="21.94,-111.68 21.98,-126.13"/>
    </edge>
    <edge id=":J4_11" function="internal">
        <lane id=":J4_11_0" index="0" speed="8.08" length="4.05" shape="21.94,-111.68 22.51,-115.52 22.59,-115.66"/>
    </edge>
    <edge id=":J4_15" function="internal">
        <lane id=":J4_15_0" index="0" speed="8.08" length="10.21" shape="22.59,-115.66 24.18,-118.29 26.94,-119.97 30.80,-120.58"/>
    </edge>
    <edge id=":J5_0" function="internal">
        <lane id=":J5_0_0" index="0" speed="7.06" length="10.86" shape="22.16,-238.18 21.82,-241.59 20.77,-244.03 19.02,-245.48 16.56,-245.96"/>
    </edge>
    <edge id=":J5_1" function="internal">
        <lane id=":J5_1_0" index="0" speed="13.89" length="16.60" shape="22.16,-238.18 22.17,-254.78"/>
    </edge>
    <edge id=":J5_2" function="internal">
        <lane id=":J5_2_0" index="0" speed="7.41" length="4.87" shape="22.16,-238.18 22.82,-243.00"/>
    </edge>
    <edge id=":J5_12" function="internal">
        <lane id=":J5_12_0" index="0" speed="7.41" length="11.79" shape="22.82,-243.00 22.83,-243.11 24.83,-245.80 28.15,-246.24 32.79,-244.43"/>
    </edge>
    <edge id=":J5_3" function="internal">
        <lane id=":J5_3_0" index="0" speed="5.69" length="9.22" shape="31.24,-241.63 28.67,-242.63 26.84,-242.39 25.73,-240.90 25.36,-238.17"/>
    </edge>
    <edge id=":J5_4" function="internal">
        <lane id=":J5_4_0" index="0" speed="13.89" length="15.45" shape="31.24,-241.63 27.81,-243.33 24.14,-244.71 20.35,-245.63 16.56,-245.96"/>
    </edge>
    <edge id=":J5_5" function="internal">
        <lane id=":J5_5_0" index="0" speed="10.82" length="4.41" shape="31.24,-241.63 27.91,-244.17 27.77,-244.34"/>
    </edge>
    <edge id=":J5_13" function="internal">
        <lane id=":J5_13_0" index="0" speed="10.82" length="12.06" shape="27.77,-244.34 25.01,-247.62 22.95,-251.36 22.17,-254.78"/>
    </edge>
    <edge id=":J5_6" function="internal">
        <lane id=":J5_6_0" index="0" speed="9.79" length="13.36" shape="25.37,-254.78 25.84,-251.79 27.23,-249.07 29.55,-246.62 32.79,-244.43"/>
    </edge>
    <edge id=":J5_7" function="internal">
        <lane id=":J5_7_0" index="0" speed="13.89" length="16.61" shape="25.37,-254.78 25.36,-238.17"/>
    </edge>
    <edge id=":J5_8" function="internal">
        <lane id=":J5_8_0" index="0" speed="8.01" length="4.07" shape="25.37,-254.78 24.82,-250.93 24.73,-250.78"/>
    </edge>
    <edge id=":J5_14" function="internal">
        <lane id=":J5_14_0" index="0" speed="8.01" length="10.13" shape="24.73,-250.78 23.17,-248.18 20.42,-246.53 16.56,-245.96"/>
    </edge>
    <edge id=":J5_9" function="internal">
        <lane id=":J5_9_0" index="0" speed="6.52" length="9.05" shape="16.55,-249.16 19.01,-249.52 20.77,-250.58 21.82,-252.33 22.17,-254.78"/>
    </edge>
    <edge id=":J5_10" function="internal">
        <lane id=":J5_10_0" index="0" speed="13.89" length="17.05" shape="16.55,-249.16 20.58,-248.77 24.91,-247.71 29.11,-246.20 32.79,-244.43"/>
    </edge>
    <edge id=":J5_11" function="internal">
        <lane id=":J5_11_0" index="0" speed="8.45" length="4.41" shape="16.55,-249.16 20.41,-248.49 20.80,-248.20"/>
    </edge>
    <edge id=":J5_15" function="internal">
        <lane id=":J5_15_0" index="0" speed="8.45" length="11.62" shape="20.80,-248.20 23.17,-246.43 24.82,-242.99 25.36,-238.17"/>
    </edge>
    <edge id=":J8_0" function="internal">
        <lane id=":J8_0_0" index="0" speed="13.89" length="12.65" shape="120.92,76.05 117.53,76.12 114.60,76.42 111.73,77.04 108.51,78.09"/>
    </edge>
    <edge id=":J8_1" function="internal">
        <lane id=":J8_1_0" index="0" speed="8.00" length="3.85" shape="120.92,76.05 117.11,75.50"/>
    </edge>
    <edge id=":J8_6" function="internal">
        <lane id=":J8_6_0" index="0" speed="8.00" length="10.22" shape="117.11,75.50 114.37,73.87 112.71,71.15 112.12,67.35"/>
    </edge>
    <edge id=":J8_2" function="internal">
        <lane id=":J8_2_0" index="0" speed="6.51" length="8.96" shape="115.32,67.31 115.69,69.73 116.75,71.46 118.49,72.50 120.92,72.85"/>
    </edge>
    <edge id=":J8_3" function="internal">
        <lane id=":J8_3_0" index="0" speed="9.06" length="13.68" shape="115.32,67.31 114.93,71.08 113.67,74.13 111.53,76.47 108.51,78.09"/>
    </edge>
    <edge id=":J8_4" function="internal">
        <lane id=":J8_4_0" index="0" speed="7.71" length="9.71" shape="107.41,75.08 109.50,73.94 110.98,72.27 111.85,70.08 112.12,67.35"/>
    </edge>
    <edge id=":J8_5" function="internal">
        <lane id=":J8_5_0" index="0" speed="13.89" length="13.77" shape="107.41,75.08 110.80,74.01 114.05,73.32 117.36,72.95 120.92,72.85"/>
    </edge>

    <edge id="-E0" from="J2" to="J1" priority="-1">
        <lane id="-E0_0" index="0" speed="13.89" length="18.35" shape="24.59,114.90 24.59,133.25"/>
    </edge>
    <edge id="-E1" from="J3" to="J2" priority="-1">
        <lane id="-E1_0" index="0" speed="13.89" length="90.99" shape="24.59,8.12 24.59,99.11"/>
    </edge>
    <edge id="-E10" from="J5" to="J10" priority="-1">
        <lane id="-E10_0" index="0" speed="13.89" length="84.00" shape="32.79,-244.43 106.31,-203.81"/>
    </edge>
    <edge id="-E11" from="J12" to="J5" priority="-1">
        <lane id="-E11_0" index="0" speed="13.89" length="25.21" shape="-8.65,-249.08 16.55,-249.16"/>
    </edge>
    <edge id="-E12" from="J3" to="J13" priority="-1">
        <lane id="-E12_0" index="0" speed="13.89" length="30.94" shape="15.74,2.67 -15.18,3.80"/>
    </edge>
    <edge id="-E13" from="J14" to="J3" priority="-1">
        <lane id="-E13_0" index="0" speed="13.89" length="21.40" shape="51.72,1.66 30.33,2.21"/>
    </edge>
    <edge id="-E14" from="J4" to="J15" priority="-1">
        <lane id="-E14_0" index="0" speed="13.89" length="31.19" shape="16.35,-117.31 -14.84,-117.50"/>
    </edge>
    <edge id="-E15" from="J16" to="J4" priority="-1">
        <lane id="-E15_0" index="0" speed="13.89" length="27.90" shape="58.75,-117.84 30.86,-117.39"/>
    </edge>
    <edge id="-E2" from="J4" to="J3" priority="-1">
        <lane id="-E2_0" index="0" speed="13.89" length="105.17" shape="25.14,-111.66 24.63,-6.49"/>
    </edge>
    <edge id="-E3" from="J5" to="J4" priority="-1">
        <lane id="-E3_0" index="0" speed="13.89" length="112.05" shape="25.36,-238.17 25.18,-126.12"/>
    </edge>
    <edge id="-E4" from="J6" to="J5" priority="-1">
        <lane id="-E4_0" index="0" speed="13.89" length="22.19" shape="25.37,-276.97 25.37,-254.78"/>
    </edge>
    <edge id="-E5" from="J7" to="J2" priority="-1">
        <lane id="-E5_0" index="0" speed="13.89" length="36.58" shape="-20.81,106.22 15.78,106.11"/>
    </edge>
    <edge id="-E6" from="J8" to="J2" priority="-1">
        <lane id="-E6_0" index="0" speed="13.89" length="81.91" shape="108.51,78.09 31.60,106.24"/>
    </edge>
    <edge id="-E7" from="J9" to="J8" priority="-1">
        <lane id="-E7_0" index="0" speed="13.89" length="48.20" shape="169.12,76.05 120.92,76.05"/>
    </edge>
    <edge id="-E8" from="J10" to="J8" priority="-1">
        <lane id="-E8_0" index="0" speed="13.89" length="259.65" shape="112.35,-192.32 115.32,67.31"/>
    </edge>
    <edge id="-E9" from="J11" to="J10" priority="-1">
        <lane id="-E9_0" index="0" speed="13.89" length="24.01" shape="141.93,-197.68 117.92,-197.90"/>
    </edge>
    <edge id="E0" from="J1" to="J2" priority="-1">
        <lane id="E0_0" index="0" speed="13.89" length="18.35" shape="21.39,133.25 21.39,114.90"/>
    </edge>
    <edge id="E1" from="J2" to="J3" priority="-1">
        <lane id="E1_0" index="0" speed="13.89" length="90.99" shape="21.39,99.11 21.39,8.12"/>
    </edge>
    <edge id="E10" from="J10" to="J5" priority="-1">
        <lane id="E10_0" index="0" speed="13.89" length="84.00" shape="104.76,-201.01 31.24,-241.63"/>
    </edge>
    <edge id="E11" from="J5" to="J12" priority="-1">
        <lane id="E11_0" index="0" speed="13.89" length="25.21" shape="16.56,-245.96 -8.64,-245.88"/>
    </edge>
    <edge id="E12" from="J13" to="J3" priority="-1">
        <lane id="E12_0" index="0" speed="13.89" length="30.94" shape="-15.30,0.61 15.62,-0.53"/>
    </edge>
    <edge id="E13" from="J3" to="J14" priority="-1">
        <lane id="E13_0" index="0" speed="13.89" length="21.40" shape="30.25,-0.99 51.64,-1.54"/>
    </edge>
    <edge id="E14" from="J15" to="J4" priority="-1">
        <lane id="E14_0" index="0" speed="13.89" length="31.19" shape="-14.82,-120.70 16.37,-120.51"/>
    </edge>
    <edge id="E15" from="J4" to="J16" priority="-1">
        <lane id="E15_0" index="0" speed="13.89" length="27.90" shape="30.80,-120.58 58.70,-121.04"/>
    </edge>
    <edge id="E2" from="J3" to="J4" priority="-1">
        <lane id="E2_0" index="0" speed="13.89" length="105.17" shape="21.43,-6.51 21.94,-111.68"/>
    </edge>
    <edge id="E3" from="J4" to="J5" priority="-1">
        <lane id="E3_0" index="0" speed="13.89" length="112.05" shape="21.98,-126.13 22.16,-238.18"/>
    </edge>
    <edge id="E4" from="J5" to="J6" priority="-1">
        <lane id="E4_0" index="0" speed="13.89" length="22.19" shape="22.17,-254.78 22.17,-276.97"/>
    </edge>
    <edge id="E5" from="J2" to="J7" priority="-1">
        <lane id="E5_0" index="0" speed="13.89" length="36.58" shape="15.79,109.31 -20.80,109.42"/>
    </edge>
    <edge id="E6" from="J2" to="J8" priority="-1">
        <lane id="E6_0" index="0" speed="13.89" length="81.91" shape="30.50,103.24 107.41,75.08"/>
    </edge>
    <edge id="E7" from="J8" to="J9" priority="-1">
        <lane id="E7_0" index="0" speed="13.89" length="48.20" shape="120.92,72.85 169.12,72.85"/>
    </edge>
    <edge id="E8" from="J8" to="J10" priority="-1">
        <lane id="E8_0" index="0" speed="13.89" length="259.65" shape="112.12,67.35 109.15,-192.28"/>
    </edge>
    <edge id="E9" from="J10" to="J11" priority="-1">
        <lane id="E9_0" index="0" speed="13.89" length="24.01" shape="117.95,-201.10 141.96,-200.88"/>
    </edge>

    <tlLogic id="J10" type="static" programID="0" offset="0">
        <phase duration="42" state="rrGGGg"/>
        <phase duration="3"  state="rryyyy"/>
        <phase duration="42" state="GGGrrr"/>
        <phase duration="3"  state="yyyrrr"/>
    </tlLogic>
    <tlLogic id="J2" type="static" programID="0" offset="0">
        <phase duration="42" state="GGgrrrGGgrrr"/>
        <phase duration="3"  state="yyyrrryyyrrr"/>
        <phase duration="42" state="rrrGGgrrrGGg"/>
        <phase duration="3"  state="rrryyyrrryyy"/>
    </tlLogic>
    <tlLogic id="J3" type="static" programID="0" offset="0">
        <phase duration="42" state="GGgrrrGGgrrr"/>
        <phase duration="3"  state="yyyrrryyyrrr"/>
        <phase duration="42" state="rrrGGgrrrGGg"/>
        <phase duration="3"  state="rrryyyrrryyy"/>
    </tlLogic>
    <tlLogic id="J4" type="static" programID="0" offset="0">
        <phase duration="42" state="rrrGGgrrrGGg"/>
        <phase duration="3"  state="rrryyyrrryyy"/>
        <phase duration="42" state="GGgrrrGGgrrr"/>
        <phase duration="3"  state="yyyrrryyyrrr"/>
    </tlLogic>
    <tlLogic id="J5" type="static" programID="0" offset="0">
        <phase duration="42" state="GGgrrrGGgrrr"/>
        <phase duration="3"  state="yyyrrryyyrrr"/>
        <phase duration="42" state="rrrGGgrrrGGg"/>
        <phase duration="3"  state="rrryyyrrryyy"/>
    </tlLogic>
    <tlLogic id="J8" type="static" programID="0" offset="0">
        <phase duration="42" state="GgrrGG"/>
        <phase duration="3"  state="yyrryy"/>
        <phase duration="42" state="rrGGGr"/>
        <phase duration="3"  state="rryyyr"/>
    </tlLogic>

    <junction id="J1" type="dead_end" x="22.99" y="133.25" incLanes="-E0_0" intLanes="" shape="22.99,133.25 26.19,133.25 22.99,133.25"/>
    <junction id="J10" type="traffic_light" x="110.66" y="-199.57" incLanes="E8_0 -E9_0 -E10_0" intLanes=":J10_0_0 :J10_1_0 :J10_2_0 :J10_3_0 :J10_4_0 :J10_6_0" shape="107.55,-192.27 113.95,-192.34 114.37,-194.56 114.91,-195.33 115.68,-195.88 116.68,-196.20 117.90,-196.30 117.96,-202.70 115.56,-202.72 113.75,-202.77 112.26,-202.96 110.83,-203.37 109.20,-204.09 107.08,-205.21 103.99,-199.60 105.94,-197.93 106.63,-196.80 107.12,-195.48 107.43,-193.97">
        <request index="0" response="001000" foes="001000" cont="0"/>
        <request index="1" response="111000" foes="111000" cont="0"/>
        <request index="2" response="000000" foes="100000" cont="0"/>
        <request index="3" response="000000" foes="100011" cont="0"/>
        <request index="4" response="000000" foes="000010" cont="0"/>
        <request index="5" response="001100" foes="001110" cont="1"/>
    </junction>
    <junction id="J11" type="dead_end" x="141.95" y="-199.28" incLanes="E9_0" intLanes="" shape="141.95,-199.28 141.98,-202.48 141.95,-199.28"/>
    <junction id="J12" type="dead_end" x="-8.65" y="-247.48" incLanes="E11_0" intLanes="" shape="-8.65,-247.48 -8.64,-244.28 -8.65,-247.48"/>
    <junction id="J13" type="dead_end" x="-15.24" y="2.20" incLanes="-E12_0" intLanes="" shape="-15.24,2.20 -15.12,5.40 -15.24,2.20"/>
    <junction id="J14" type="dead_end" x="51.68" y="0.06" incLanes="E13_0" intLanes="" shape="51.68,0.06 51.60,-3.14 51.68,0.06"/>
    <junction id="J15" type="dead_end" x="-14.83" y="-119.10" incLanes="-E14_0" intLanes="" shape="-14.83,-119.10 -14.85,-115.90 -14.83,-119.10"/>
    <junction id="J16" type="dead_end" x="58.73" y="-119.44" incLanes="E15_0" intLanes="" shape="58.73,-119.44 58.67,-122.64 58.73,-119.44"/>
    <junction id="J2" type="traffic_light" x="22.99" y="107.69" incLanes="E0_0 -E6_0 -E1_0 -E5_0" intLanes=":J2_0_0 :J2_1_0 :J2_12_0 :J2_3_0 :J2_4_0 :J2_13_0 :J2_6_0 :J2_7_0 :J2_14_0 :J2_9_0 :J2_10_0 :J2_15_0" shape="19.79,114.90 26.19,114.90 26.85,111.89 27.68,110.62 28.84,109.51 30.33,108.55 32.15,107.74 29.95,101.73 27.86,102.05 27.13,101.77 26.61,101.18 26.30,100.29 26.19,99.11 19.79,99.11 19.35,102.10 18.79,103.15 18.01,103.90 17.00,104.36 15.77,104.51 15.79,110.91 18.01,111.35 18.79,111.90 19.35,112.68 19.68,113.68">
        <request index="0"  response="000000000000" foes="000100010000" cont="0"/>
        <request index="1"  response="100000100000" foes="111100110000" cont="0"/>
        <request index="2"  response="100011100000" foes="110111110000" cont="1"/>
        <request index="3"  response="000010000000" foes="100010000000" cont="0"/>
        <request index="4"  response="000110000111" foes="100110000111" cont="0"/>
        <request index="5"  response="011110000110" foes="111110000110" cont="1"/>
        <request index="6"  response="000000000000" foes="010000000100" cont="0"/>
        <request index="7"  response="100000100000" foes="110000111100" cont="0"/>
        <request index="8"  response="100000100111" foes="110000110111" cont="1"/>
        <request index="9"  response="000000000010" foes="000000100010" cont="0"/>
        <request index="10" response="000111000110" foes="000111100110" cont="0"/>
        <request index="11" response="000110111110" foes="000110111110" cont="1"/>
    </junction>
    <junction id="J3" type="traffic_light" x="22.99" y="0.80" incLanes="E1_0 -E13_0 -E2_0 E12_0" intLanes=":J3_0_0 :J3_1_0 :J3_12_0 :J3_3_0 :J3_4_0 :J3_13_0 :J3_6_0 :J3_7_0 :J3_14_0 :J3_9_0 :J3_10_0 :J3_15_0" shape="19.79,8.12 26.19,8.12 26.66,5.77 27.24,4.94 28.05,4.34 29.09,3.96 30.37,3.81 30.21,-2.59 27.99,-2.97 27.21,-3.51 26.66,-4.27 26.33,-5.26 26.23,-6.48 19.83,-6.51 19.34,-4.15 18.75,-3.30 17.92,-2.68 16.86,-2.29 15.56,-2.13 15.79,4.27 18.02,4.63 18.79,5.16 19.35,5.91 19.68,6.90">
        <request index="0"  response="000000000000" foes="000100010000" cont="0"/>
        <request index="1"  response="100000100000" foes="111100110000" cont="0"/>
        <request index="2"  response="100011100000" foes="110111110000" cont="1"/>
        <request index="3"  response="000010000000" foes="100010000000" cont="0"/>
        <request index="4"  response="000110000111" foes="100110000111" cont="0"/>
        <request index="5"  response="111110000110" foes="111110000110" cont="1"/>
        <request index="6"  response="000000000000" foes="010000000100" cont="0"/>
        <request index="7"  response="100000100000" foes="110000111100" cont="0"/>
        <request index="8"  response="100000100111" foes="110000110111" cont="1"/>
        <request index="9"  response="000000000010" foes="000000100010" cont="0"/>
        <request index="10" response="000111000110" foes="000111100110" cont="0"/>
        <request index="11" response="000110011110" foes="000110111110" cont="1"/>
    </junction>
    <junction id="J4" type="traffic_light" x="23.57" y="-118.87" incLanes="-E15_0 -E3_0 E14_0 E2_0" intLanes=":J4_0_0 :J4_1_0 :J4_12_0 :J4_3_0 :J4_4_0 :J4_13_0 :J4_6_0 :J4_7_0 :J4_14_0 :J4_9_0 :J4_10_0 :J4_15_0" shape="30.88,-115.79 30.78,-122.18 28.56,-122.59 27.78,-123.14 27.23,-123.90 26.89,-124.90 26.78,-126.12 20.38,-126.13 19.94,-123.89 19.38,-123.10 18.60,-122.55 17.60,-122.21 16.38,-122.11 16.34,-115.71 18.57,-115.25 19.35,-114.69 19.90,-113.91 20.23,-112.91 20.34,-111.69 26.74,-111.65 27.21,-113.92 27.78,-114.72 28.59,-115.30 29.62,-115.65">
        <request index="0"  response="000000010000" foes="000100010000" cont="0"/>
        <request index="1"  response="111000110000" foes="111100110000" cont="0"/>
        <request index="2"  response="110111110000" foes="110111110000" cont="1"/>
        <request index="3"  response="000000000000" foes="100010000000" cont="0"/>
        <request index="4"  response="000100000100" foes="100110000111" cont="0"/>
        <request index="5"  response="111100000100" foes="111110000110" cont="1"/>
        <request index="6"  response="010000000000" foes="010000000100" cont="0"/>
        <request index="7"  response="110000111000" foes="110000111100" cont="0"/>
        <request index="8"  response="110000110011" foes="110000110111" cont="1"/>
        <request index="9"  response="000000000000" foes="000000100010" cont="0"/>
        <request index="10" response="000100000100" foes="000111100110" cont="0"/>
        <request index="11" response="000100011100" foes="000110111110" cont="1"/>
    </junction>
    <junction id="J5" type="traffic_light" x="23.77" y="-247.59" incLanes="E3_0 E10_0 -E4_0 -E11_0" intLanes=":J5_0_0 :J5_1_0 :J5_12_0 :J5_3_0 :J5_4_0 :J5_13_0 :J5_6_0 :J5_7_0 :J5_14_0 :J5_9_0 :J5_10_0 :J5_15_0" shape="20.56,-238.18 26.96,-238.17 27.35,-240.18 27.84,-240.68 28.52,-240.86 29.40,-240.71 30.47,-240.23 33.56,-245.84 31.55,-247.10 29.90,-248.45 28.62,-249.89 27.71,-251.43 27.16,-253.06 26.97,-254.78 20.57,-254.78 20.13,-252.55 19.57,-251.77 18.79,-251.22 17.78,-250.88 16.55,-250.76 16.57,-244.36 18.79,-243.68 19.57,-242.82 20.12,-241.62 20.45,-240.07">
        <request index="0"  response="000000000000" foes="000100010000" cont="0"/>
        <request index="1"  response="100000100000" foes="111100110000" cont="0"/>
        <request index="2"  response="100011100000" foes="110011110000" cont="1"/>
        <request index="3"  response="000010000000" foes="100010000000" cont="0"/>
        <request index="4"  response="000110000111" foes="100110000111" cont="0"/>
        <request index="5"  response="011110000110" foes="111110000110" cont="1"/>
        <request index="6"  response="000000000000" foes="010000000100" cont="0"/>
        <request index="7"  response="100000100000" foes="110000111100" cont="0"/>
        <request index="8"  response="100000100011" foes="110000110011" cont="1"/>
        <request index="9"  response="000000000010" foes="000000100010" cont="0"/>
        <request index="10" response="000111000110" foes="000111100110" cont="0"/>