<?xml version="1.0" encoding="UTF-8"?>

<!-- generated on 2023-06-15 11:28:49 by Eclipse SUMO netedit Version v1_14_1+2245-8aa96d847b0
<configuration xmlns:xsi="http://www.w3.org/2001/XMLSchema-instance" xsi:noNamespaceSchemaLocation="http://sumo.dlr.de/xsd/netconvertConfiguration.xsd">

    <output>
        <output-file value="/Users/guanghu/Desktop/simple.net.xml"/>
    </output>

    <processing>
        <offset.disable-normalization value="true"/>
    </processing>

    <junctions>
        <no-turnarounds value="true"/>
    </junctions>

</configuration>
-->

<net version="1.9" junctionCornerDetail="5" limitTurnSpeed="5.50" xmlns:xsi="http://www.w3.org/2001/XMLSchema-instance" xsi:noNamespaceSchemaLocation="http://sumo.dlr.de/xsd/net_file.xsd">

    <location netOffset="0.00,0.00" convBoundary="27.96,-2.02,67.32,93.10" origBoundary="10000000000.00,10000000000.00,-10000000000.00,-10000000000.00" projParameter="!"/>

    <edge id=":J2_0" function="internal">
        <lane id=":J2_0_0" index="0" speed="3.93" length="2.16" shape="64.47,47.41 64.78,46.92 64.89,46.43 64.81,45.93 64.53,45.43"/>
    </edge>

    <edge id="E0" from="J1" to="J2" priority="-1">
        <lane id="E0_0" index="0" speed="13.89" length="52.87" shape="30.35,87.79 64.47,47.41"/>
    </edge>
    <edge id="E1" from="J2" to="J3" priority="-1">
        <lane id="E1_0" index="0" speed="13.89" length="52.23" shape="64.53,45.43 33.56,3.37"/>
    </edge>
    <edge id="E2" from="J1" to="J3" priority="-1">
        <lane id="E2_0" index="0" speed="13.89" length="81.86" shape="26.62,86.35 29.73,4.55"/>
    </edge>

    <junction id="J1" type="dead_end" x="27.96" y="93.10" incLanes="" intLanes="" shape="31.57,88.82 29.13,86.76 28.60,87.23 28.42,87.24 28.29,87.11 28.23,86.83 28.22,86.41 25.02,86.28 25.09,89.35 25.57,91.36 26.45,92.31 27.75,92.21 29.46,91.04"/>
    <junction id="J2" type="priority" x="67.32" y="46.51" incLanes="E0_0" intLanes=":J2_0_0" shape="65.82,44.48 63.25,46.37 65.69,48.44 66.43,47.14 66.54,46.48 66.47,45.82 66.23,45.15">
        <request index="0" response="0" foes="0" cont="0"/>
    </junction>
    <junction id="J3" type="dead_end" x="31.58" y="-2.02" incLanes="E1_0 E2_0" intLanes="" shape="32.27,4.32 34.85,2.42 32.91,0.09 31.30,-1.16 30.01,-1.35 29.06,-0.47 28.43,1.47 28.13,4.49 31.33,4.61 31.46,3.91 31.59,3.79 31.77,3.81 32.00,3.99"/>

    <connection from="E0" to="E1" fromLane="0" toLane="0" via=":J2_0_0" dir="r" state="M"/>

    <connection from=":J2_0" to="E1" fromLane="0" toLane="0" dir="r" state="M"/>

</net>
