<additional>
        <laneAreaDetector id="D0" lane="E0_0" pos="0.0" length="98.50" freq ="1" file="dqn_detfile.out"/>
        <laneAreaDetector id="D1" lane="E1_0" pos="0.0" length="4988.28" freq ="1" file="dqn_detfile.out"/>
        <laneAreaDetector id="D10" lane="E10_0" pos="0.0" length="996.00" freq ="1" file="dqn_detfile.out"/>
        <laneAreaDetector id="D11" lane="E11_0" pos="0.0" length="992.80" freq ="1" file="dqn_detfile.out"/>
        <laneAreaDetector id="D12" lane="E12_0" pos="0.0" length="2986.35" freq ="1" file="dqn_detfile.out"/>
        <laneAreaDetector id="D13" lane="E13_0" pos="0.0" length="996.00" freq ="1" file="dqn_detfile.out"/>
        <laneAreaDetector id="D2" lane="E2_0" pos="0.0" length="4988.80" freq ="1" file="dqn_detfile.out"/>
        <laneAreaDetector id="D3" lane="E3_0" pos="0.0" length="4985.08" freq ="1" file="dqn_detfile.out"/>
        <laneAreaDetector id="D4" lane="E4_0" pos="0.0" length="98.50" freq ="1" file="dqn_detfile.out"/>
        <laneAreaDetector id="D5" lane="E5_0" pos="0.0" length="5818.20" freq ="1" file="dqn_detfile.out"/>
        <laneAreaDetector id="D6" lane="E6_0" pos="0.0" length="4988.80" freq ="1" file="dqn_detfile.out"/>
        <laneAreaDetector id="D7" lane="E7_0" pos="0.0" length="5814.47" freq ="1" file="dqn_detfile.out"/>
        <laneAreaDetector id="D8" lane="E8_0" pos="0.0" length="992.80" freq ="1" file="dqn_detfile.out"/>
        <laneAreaDetector id="D9" lane="E9_0" pos="0.0" length="2988.27" freq ="1" file="dqn_detfile.out"/>
</additional>
