<additional>
        <laneAreaDetector id="D0" lane="E0_0" pos="0.0" length="63.43" freq ="1" file="dqn_detfile.out"/>
        <laneAreaDetector id="D1" lane="E1_0" pos="0.0" length="3805.36" freq ="1" file="dqn_detfile.out"/>
        <laneAreaDetector id="D2" lane="E2_0" pos="0.0" length="3733.87" freq ="1" file="dqn_detfile.out"/>
        <laneAreaDetector id="D3" lane="E3_0" pos="0.0" length="4041.62" freq ="1" file="dqn_detfile.out"/>
        <laneAreaDetector id="D4" lane="E4_0" pos="0.0" length="65.73" freq ="1" file="dqn_detfile.out"/>
        <laneAreaDetector id="D6" lane="E6_0" pos="0.0" length="3955.27" freq ="1" file="dqn_detfile.out"/>
        <laneAreaDetector id="D7" lane="E7_0" pos="0.0" length="3749.42" freq ="1" file="dqn_detfile.out"/>
        <laneAreaDetector id="D8" lane="E8_0" pos="0.0" length="4235.35" freq ="1" file="dqn_detfile.out"/>
</additional>
