<additional>
        <laneAreaDetector id="D0" lane=":J2_0_0" pos="0.0" length="2.16" freq ="1" file="dqn_detfile.out"/>
</additional>
