<?xml version="1.0" encoding="UTF-8"?>

<net version="1.9" junctionCornerDetail="5" limitTurnSpeed="5.50">

    <location netOffset="0.00,0.00" convBoundary="-40.13,13.32,111.24,82.40" origBoundary="-10000000000.00,-10000000000.00,10000000000.00,10000000000.00" projParameter="!"/>

    <edge id="E0" from="J0" to="J1" priority="-1" length="200.00">
        <lane id="E0_0" index="0" speed="13.89" length="200.00" shape="0,50 50,50"/>
    </edge>
    <junction id="J0" type="dead_end" x="-38.47" y="13.32" incLanes="" intLanes="" shape="-30,50 -5,50"/>
    <junction id="J1" type="dead_end" x="107.19" y="14.39" incLanes="" intLanes="" shape="125,50 140,50"/>
</net>
