<?xml version="1.0" encoding="UTF-8"?>

<routes>
    <vType id="ElectricBus" accel="1.0" decel="1.0" length="60" maxSpeed="10.0" sigma="0.0" minGap="2.5" color="1,1,1">
    </vType>
</routes>
