<routes xmlns:xsi="http://www.w3.org/2001/XMLSchema-instance" xsi:noNamespaceSchemaLocation="http://sumo.dlr.de/xsd/routes_file.xsd">
    <route id="route1" edges="edge1"/>
    <vehicle id="vehicle1" route="route1" depart="0" departLane="best" departSpeed="max"/>
</routes>