<?xml version="1.0" encoding="UTF-8"?>

<!-- generated on 2023-05-10 20:36:16 by Eclipse SUMO netedit Version v1_14_1+2245-8aa96d847b0
<configuration xmlns:xsi="http://www.w3.org/2001/XMLSchema-instance" xsi:noNamespaceSchemaLocation="http://sumo.dlr.de/xsd/netconvertConfiguration.xsd">

    <output>
        <output-file value="/Users/guanghu/Desktop/hu.net.xml"/>
    </output>

    <processing>
        <offset.disable-normalization value="true"/>
    </processing>

    <junctions>
        <no-turnarounds value="true"/>
    </junctions>

</configuration>
-->

<net version="1.9" junctionCornerDetail="5" limitTurnSpeed="5.50" xmlns:xsi="http://www.w3.org/2001/XMLSchema-instance" xsi:noNamespaceSchemaLocation="http://sumo.dlr.de/xsd/net_file.xsd">

    <location netOffset="0.00,0.00" convBoundary="-1000.00,-1000.00,4000.00,4000.00" origBoundary="10000000000.00,10000000000.00,-10000000000.00,-10000000000.00" projParameter="!"/>

    <edge id=":J1_0" function="internal">
        <lane id=":J1_0_0" index="0" speed="6.51" length="9.03" shape="-4.80,10.40 -5.15,7.95 -6.20,6.20 -7.95,5.15 -10.40,4.80"/>
    </edge>
    <edge id=":J1_1" function="internal">
        <lane id=":J1_1_0" index="0" speed="13.89" length="20.80" shape="-4.80,10.40 -4.80,-10.40"/>
        <lane id=":J1_1_1" index="1" speed="13.89" length="20.80" shape="-1.60,10.40 -1.60,-10.40"/>
    </edge>
    <edge id=":J1_3" function="internal">
        <lane id=":J1_3_0" index="0" speed="9.26" length="5.01" shape="-1.60,10.40 -0.89,5.44"/>
    </edge>
    <edge id=":J1_16" function="internal">
        <lane id=":J1_16_0" index="0" speed="9.26" length="14.34" shape="-0.89,5.44 -0.85,5.15 1.40,1.40 5.15,-0.85 10.40,-1.60"/>
    </edge>
    <edge id=":J1_4" function="internal">
        <lane id=":J1_4_0" index="0" speed="6.51" length="9.03" shape="10.40,4.80 7.95,5.15 6.20,6.20 5.15,7.95 4.80,10.40"/>
    </edge>
    <edge id=":J1_5" function="internal">
        <lane id=":J1_5_0" index="0" speed="13.89" length="20.80" shape="10.40,4.80 -10.40,4.80"/>
        <lane id=":J1_5_1" index="1" speed="13.89" length="20.80" shape="10.40,1.60 -10.40,1.60"/>
    </edge>
    <edge id=":J1_7" function="internal">
        <lane id=":J1_7_0" index="0" speed="9.26" length="5.01" shape="10.40,1.60 5.44,0.89"/>
    </edge>
    <edge id=":J1_17" function="internal">
        <lane id=":J1_17_0" index="0" speed="9.26" length="14.34" shape="5.44,0.89 5.15,0.85 1.40,-1.40 -0.85,-5.15 -1.60,-10.40"/>
    </edge>
    <edge id=":J1_8" function="internal">
        <lane id=":J1_8_0" index="0" speed="6.51" length="9.03" shape="4.80,-10.40 5.15,-7.95 6.20,-6.20 7.95,-5.15 10.40,-4.80"/>
    </edge>
    <edge id=":J1_9" function="internal">
        <lane id=":J1_9_0" index="0" speed="13.89" length="20.80" shape="4.80,-10.40 4.80,10.40"/>
        <lane id=":J1_9_1" index="1" speed="13.89" length="20.80" shape="1.60,-10.40 1.60,10.40"/>
    </edge>
    <edge id=":J1_11" function="internal">
        <lane id=":J1_11_0" index="0" speed="9.26" length="5.01" shape="1.60,-10.40 0.89,-5.44"/>
    </edge>
    <edge id=":J1_18" function="internal">
        <lane id=":J1_18_0" index="0" speed="9.26" length="14.34" shape="0.89,-5.44 0.85,-5.15 -1.40,-1.40 -5.15,0.85 -10.40,1.60"/>
    </edge>
    <edge id=":J1_12" function="internal">
        <lane id=":J1_12_0" index="0" speed="6.51" length="9.03" shape="-10.40,-4.80 -7.95,-5.15 -6.20,-6.20 -5.15,-7.95 -4.80,-10.40"/>
    </edge>
    <edge id=":J1_13" function="internal">
        <lane id=":J1_13_0" index="0" speed="13.89" length="20.80" shape="-10.40,-4.80 10.40,-4.80"/>
        <lane id=":J1_13_1" index="1" speed="13.89" length="20.80" shape="-10.40,-1.60 10.40,-1.60"/>
    </edge>
    <edge id=":J1_15" function="internal">
        <lane id=":J1_15_0" index="0" speed="9.26" length="5.01" shape="-10.40,-1.60 -5.44,-0.89"/>
    </edge>
    <edge id=":J1_19" function="internal">
        <lane id=":J1_19_0" index="0" speed="9.26" length="14.34" shape="-5.44,-0.89 -5.15,-0.85 -1.40,1.40 0.85,5.15 1.60,10.40"/>
    </edge>
    <edge id=":J10_0" function="internal">
        <lane id=":J10_0_0" index="0" speed="6.51" length="9.03" shape="2995.20,1010.40 2994.85,1007.95 2993.80,1006.20 2992.05,1005.15 2989.60,1004.80"/>
    </edge>
    <edge id=":J10_1" function="internal">
        <lane id=":J10_1_0" index="0" speed="13.89" length="20.80" shape="2995.20,1010.40 2995.20,989.60"/>
        <lane id=":J10_1_1" index="1" speed="13.89" length="20.80" shape="2998.40,1010.40 2998.40,989.60"/>
    </edge>
    <edge id=":J10_3" function="internal">
        <lane id=":J10_3_0" index="0" speed="9.26" length="5.01" shape="2998.40,1010.40 2999.11,1005.44"/>
    </edge>
    <edge id=":J10_16" function="internal">
        <lane id=":J10_16_0" index="0" speed="9.26" length="14.34" shape="2999.11,1005.44 2999.15,1005.15 3001.40,1001.40 3005.15,999.15 3010.40,998.40"/>
    </edge>
    <edge id=":J10_4" function="internal">
        <lane id=":J10_4_0" index="0" speed="6.51" length="9.03" shape="3010.40,1004.80 3007.95,1005.15 3006.20,1006.20 3005.15,1007.95 3004.80,1010.40"/>
    </edge>
    <edge id=":J10_5" function="internal">
        <lane id=":J10_5_0" index="0" speed="13.89" length="20.80" shape="3010.40,1004.80 2989.60,1004.80"/>
        <lane id=":J10_5_1" index="1" speed="13.89" length="20.80" shape="3010.40,1001.60 2989.60,1001.60"/>
    </edge>
    <edge id=":J10_7" function="internal">
        <lane id=":J10_7_0" index="0" speed="9.26" length="5.01" shape="3010.40,1001.60 3005.44,1000.89"/>
    </edge>
    <edge id=":J10_17" function="internal">
        <lane id=":J10_17_0" index="0" speed="9.26" length="14.34" shape="3005.44,1000.89 3005.15,1000.85 3001.40,998.60 2999.15,994.85 2998.40,989.60"/>
    </edge>
    <edge id=":J10_8" function="internal">
        <lane id=":J10_8_0" index="0" speed="6.51" length="9.03" shape="3004.80,989.60 3005.15,992.05 3006.20,993.80 3007.95,994.85 3010.40,995.20"/>
    </edge>
    <edge id=":J10_9" function="internal">
        <lane id=":J10_9_0" index="0" speed="13.89" length="20.80" shape="3004.80,989.60 3004.80,1010.40"/>
        <lane id=":J10_9_1" index="1" speed="13.89" length="20.80" shape="3001.60,989.60 3001.60,1010.40"/>
    </edge>
    <edge id=":J10_11" function="internal">
        <lane id=":J10_11_0" index="0" speed="9.26" length="5.01" shape="3001.60,989.60 3000.89,994.56"/>
    </edge>
    <edge id=":J10_18" function="internal">
        <lane id=":J10_18_0" index="0" speed="9.26" length="14.34" shape="3000.89,994.56 3000.85,994.85 2998.60,998.60 2994.85,1000.85 2989.60,1001.60"/>
    </edge>
    <edge id=":J10_12" function="internal">
        <lane id=":J10_12_0" index="0" speed="6.51" length="9.03" shape="2989.60,995.20 2992.05,994.85 2993.80,993.80 2994.85,992.05 2995.20,989.60"/>
    </edge>
    <edge id=":J10_13" function="internal">
        <lane id=":J10_13_0" index="0" speed="13.89" length="20.80" shape="2989.60,995.20 3010.40,995.20"/>
        <lane id=":J10_13_1" index="1" speed="13.89" length="20.80" shape="2989.60,998.40 3010.40,998.40"/>
    </edge>
    <edge id=":J10_15" function="internal">
        <lane id=":J10_15_0" index="0" speed="9.26" length="5.01" shape="2989.60,998.40 2994.56,999.11"/>
    </edge>
    <edge id=":J10_19" function="internal">
        <lane id=":J10_19_0" index="0" speed="9.26" length="14.34" shape="2994.56,999.11 2994.85,999.15 2998.60,1001.40 3000.85,1005.15 3001.60,1010.40"/>
    </edge>
    <edge id=":J13_0" function="internal">
        <lane id=":J13_0_0" index="0" speed="6.51" length="9.03" shape="-4.80,2010.40 -5.15,2007.95 -6.20,2006.20 -7.95,2005.15 -10.40,2004.80"/>
    </edge>
    <edge id=":J13_1" function="internal">
        <lane id=":J13_1_0" index="0" speed="13.89" length="20.80" shape="-4.80,2010.40 -4.80,1989.60"/>
        <lane id=":J13_1_1" index="1" speed="13.89" length="20.80" shape="-1.60,2010.40 -1.60,1989.60"/>
    </edge>
    <edge id=":J13_3" function="internal">
        <lane id=":J13_3_0" index="0" speed="9.26" length="5.01" shape="-1.60,2010.40 -0.89,2005.44"/>
    </edge>
    <edge id=":J13_16" function="internal">
        <lane id=":J13_16_0" index="0" speed="9.26" length="14.34" shape="-0.89,2005.44 -0.85,2005.15 1.40,2001.40 5.15,1999.15 10.40,1998.40"/>
    </edge>
    <edge id=":J13_4" function="internal">
        <lane id=":J13_4_0" index="0" speed="6.51" length="9.03" shape="10.40,2004.80 7.95,2005.15 6.20,2006.20 5.15,2007.95 4.80,2010.40"/>
    </edge>
    <edge id=":J13_5" function="internal">
        <lane id=":J13_5_0" index="0" speed="13.89" length="20.80" shape="10.40,2004.80 -10.40,2004.80"/>
        <lane id=":J13_5_1" index="1" speed="13.89" length="20.80" shape="10.40,2001.60 -10.40,2001.60"/>
    </edge>
    <edge id=":J13_7" function="internal">
        <lane id=":J13_7_0" index="0" speed="9.26" length="5.01" shape="10.40,2001.60 5.44,2000.89"/>
    </edge>
    <edge id=":J13_17" function="internal">
        <lane id=":J13_17_0" index="0" speed="9.26" length="14.34" shape="5.44,2000.89 5.15,2000.85 1.40,1998.60 -0.85,1994.85 -1.60,1989.60"/>
    </edge>
    <edge id=":J13_8" function="internal">
        <lane id=":J13_8_0" index="0" speed="6.51" length="9.03" shape="4.80,1989.60 5.15,1992.05 6.20,1993.80 7.95,1994.85 10.40,1995.20"/>
    </edge>
    <edge id=":J13_9" function="internal">
        <lane id=":J13_9_0" index="0" speed="13.89" length="20.80" shape="4.80,1989.60 4.80,2010.40"/>
        <lane id=":J13_9_1" index="1" speed="13.89" length="20.80" shape="1.60,1989.60 1.60,2010.40"/>
    </edge>
    <edge id=":J13_11" function="internal">
        <lane id=":J13_11_0" index="0" speed="9.26" length="5.01" shape="1.60,1989.60 0.89,1994.56"/>
    </edge>
    <edge id=":J13_18" function="internal">
        <lane id=":J13_18_0" index="0" speed="9.26" length="14.34" shape="0.89,1994.56 0.85,1994.85 -1.40,1998.60 -5.15,2000.85 -10.40,2001.60"/>
    </edge>
    <edge id=":J13_12" function="internal">
        <lane id=":J13_12_0" index="0" speed="6.51" length="9.03" shape="-10.40,1995.20 -7.95,1994.85 -6.20,1993.80 -5.15,1992.05 -4.80,1989.60"/>
    </edge>
    <edge id=":J13_13" function="internal">
        <lane id=":J13_13_0" index="0" speed="13.89" length="20.80" shape="-10.40,1995.20 10.40,1995.20"/>
        <lane id=":J13_13_1" index="1" speed="13.89" length="20.80" shape="-10.40,1998.40 10.40,1998.40"/>
    </edge>
    <edge id=":J13_15" function="internal">
        <lane id=":J13_15_0" index="0" speed="9.26" length="5.01" shape="-10.40,1998.40 -5.44,1999.11"/>
    </edge>
    <edge id=":J13_19" function="internal">
        <lane id=":J13_19_0" index="0" speed="9.26" length="14.34" shape="-5.44,1999.11 -5.15,1999.15 -1.40,2001.40 0.85,2005.15 1.60,2010.40"/>
    </edge>
    <edge id=":J14_0" function="internal">
        <lane id=":J14_0_0" index="0" speed="6.51" length="9.03" shape="995.20,2010.40 994.85,2007.95 993.80,2006.20 992.05,2005.15 989.60,2004.80"/>
    </edge>
    <edge id=":J14_1" function="internal">
        <lane id=":J14_1_0" index="0" speed="13.89" length="20.80" shape="995.20,2010.40 995.20,1989.60"/>
        <lane id=":J14_1_1" index="1" speed="13.89" length="20.80" shape="998.40,2010.40 998.40,1989.60"/>
    </edge>
    <edge id=":J14_3" function="internal">
        <lane id=":J14_3_0" index="0" speed="9.26" length="5.01" shape="998.40,2010.40 999.11,2005.44"/>
    </edge>
    <edge id=":J14_16" function="internal">
        <lane id=":J14_16_0" index="0" speed="9.26" length="14.34" shape="999.11,2005.44 999.15,2005.15 1001.40,2001.40 1005.15,1999.15 1010.40,1998.40"/>
    </edge>
    <edge id=":J14_4" function="internal">
        <lane id=":J14_4_0" index="0" speed="6.51" length="9.03" shape="1010.40,2004.80 1007.95,2005.15 1006.20,2006.20 1005.15,2007.95 1004.80,2010.40"/>
    </edge>
    <edge id=":J14_5" function="internal">
        <lane id=":J14_5_0" index="0" speed="13.89" length="20.80" shape="1010.40,2004.80 989.60,2004.80"/>
        <lane id=":J14_5_1" index="1" speed="13.89" length="20.80" shape="1010.40,2001.60 989.60,2001.60"/>
    </edge>
    <edge id=":J14_7" function="internal">
        <lane id=":J14_7_0" index="0" speed="9.26" length="5.01" shape="1010.40,2001.60 1005.44,2000.89"/>
    </edge>
    <edge id=":J14_17" function="internal">
        <lane id=":J14_17_0" index="0" speed="9.26" length="14.34" shape="1005.44,2000.89 1005.15,2000.85 1001.40,1998.60 999.15,1994.85 998.40,1989.60"/>
    </edge>
    <edge id=":J14_8" function="internal">
        <lane id=":J14_8_0" index="0" speed="6.51" length="9.03" shape="1004.80,1989.60 1005.15,1992.05 1006.20,1993.80 1007.95,1994.85 1010.40,1995.20"/>
    </edge>
    <edge id=":J14_9" function="internal">
        <lane id=":J14_9_0" index="0" speed="13.89" length="20.80" shape="1004.80,1989.60 1004.80,2010.40"/>
        <lane id=":J14_9_1" index="1" speed="13.89" length="20.80" shape="1001.60,1989.60 1001.60,2010.40"/>
    </edge>
    <edge id=":J14_11" function="internal">
        <lane id=":J14_11_0" index="0" speed="9.26" length="5.01" shape="1001.60,1989.60 1000.89,1994.56"/>
    </edge>
    <edge id=":J14_18" function="internal">
        <lane id=":J14_18_0" index="0" speed="9.26" length="14.34" shape="1000.89,1994.56 1000.85,1994.85 998.60,1998.60 994.85,2000.85 989.60,2001.60"/>
    </edge>
    <edge id=":J14_12" function="internal">
        <lane id=":J14_12_0" index="0" speed="6.51" length="9.03" shape="989.60,1995.20 992.05,1994.85 993.80,1993.80 994.85,1992.05 995.20,1989.60"/>
    </edge>
    <edge id=":J14_13" function="internal">
        <lane id=":J14_13_0" index="0" speed="13.89" length="20.80" shape="989.60,1995.20 1010.40,1995.20"/>
        <lane id=":J14_13_1" index="1" speed="13.89" length="20.80" shape="989.60,1998.40 1010.40,1998.40"/>
    </edge>
    <edge id=":J14_15" function="internal">
        <lane id=":J14_15_0" index="0" speed="9.26" length="5.01" shape="989.60,1998.40 994.56,1999.11"/>
    </edge>
    <edge id=":J14_19" function="internal">
        <lane id=":J14_19_0" index="0" speed="9.26" length="14.34" shape="994.56,1999.11 994.85,1999.15 998.60,2001.40 1000.85,2005.15 1001.60,2010.40"/>
    </edge>
    <edge id=":J15_0" function="internal">
        <lane id=":J15_0_0" index="0" speed="6.51" length="9.03" shape="1995.20,2010.40 1994.85,2007.95 1993.80,2006.20 1992.05,2005.15 1989.60,2004.80"/>
    </edge>
    <edge id=":J15_1" function="internal">
        <lane id=":J15_1_0" index="0" speed="13.89" length="20.80" shape="1995.20,2010.40 1995.20,1989.60"/>
        <lane id=":J15_1_1" index="1" speed="13.89" length="20.80" shape="1998.40,2010.40 1998.40,1989.60"/>
    </edge>
    <edge id=":J15_3" function="internal">
        <lane id=":J15_3_0" index="0" speed="9.26" length="5.01" shape="1998.40,2010.40 1999.11,2005.44"/>
    </edge>
    <edge id=":J15_16" function="internal">
        <lane id=":J15_16_0" index="0" speed="9.26" length="14.34" shape="1999.11,2005.44 1999.15,2005.15 2001.40,2001.40 2005.15,1999.15 2010.40,1998.40"/>
    </edge>
    <edge id=":J15_4" function="internal">
        <lane id=":J15_4_0" index="0" speed="6.51" length="9.03" shape="2010.40,2004.80 2007.95,2005.15 2006.20,2006.20 2005.15,2007.95 2004.80,2010.40"/>
    </edge>
    <edge id=":J15_5" function="internal">
        <lane id=":J15_5_0" index="0" speed="13.89" length="20.80" shape="2010.40,2004.80 1989.60,2004.80"/>
        <lane id=":J15_5_1" index="1" speed="13.89" length="20.80" shape="2010.40,2001.60 1989.60,2001.60"/>
    </edge>
    <edge id=":J15_7" function="internal">
        <lane id=":J15_7_0" index="0" speed="9.26" length="5.01" shape="2010.40,2001.60 2005.44,2000.89"/>
    </edge>
    <edge id=":J15_17" function="internal">
        <lane id=":J15_17_0" index="0" speed="9.26" length="14.34" shape="2005.44,2000.89 2005.15,2000.85 2001.40,1998.60 1999.15,1994.85 1998.40,1989.60"/>
    </edge>
    <edge id=":J15_8" function="internal">
        <lane id=":J15_8_0" index="0" speed="6.51" length="9.03" shape="2004.80,1989.60 2005.15,1992.05 2006.20,1993.80 2007.95,1994.85 2010.40,1995.20"/>
    </edge>
    <edge id=":J15_9" function="internal">
        <lane id=":J15_9_0" index="0" speed="13.89" length="20.80" shape="2004.80,1989.60 2004.80,2010.40"/>
        <lane id=":J15_9_1" index="1" speed="13.89" length="20.80" shape="2001.60,1989.60 2001.60,2010.40"/>
    </edge>
    <edge id=":J15_11" function="internal">
        <lane id=":J15_11_0" index="0" speed="9.26" length="5.01" shape="2001.60,1989.60 2000.89,1994.56"/>
    </edge>
    <edge id=":J15_18" function="internal">
        <lane id=":J15_18_0" index="0" speed="9.26" length="14.34" shape="2000.89,1994.56 2000.85,1994.85 1998.60,1998.60 1994.85,2000.85 1989.60,2001.60"/>
    </edge>
    <edge id=":J15_12" function="internal">
        <lane id=":J15_12_0" index="0" speed="6.51" length="9.03" shape="1989.60,1995.20 1992.05,1994.85 1993.80,1993.80 1994.85,1992.05 1995.20,1989.60"/>
    </edge>
    <edge id=":J15_13" function="internal">
        <lane id=":J15_13_0" index="0" speed="13.89" length="20.80" shape="1989.60,1995.20 2010.40,1995.20"/>
        <lane id=":J15_13_1" index="1" speed="13.89" length="20.80" shape="1989.60,1998.40 2010.40,1998.40"/>
    </edge>
    <edge id=":J15_15" function="internal">
        <lane id=":J15_15_0" index="0" speed="9.26" length="5.01" shape="1989.60,1998.40 1994.56,1999.11"/>
    </edge>
    <edge id=":J15_19" function="internal">
        <lane id=":J15_19_0" index="0" speed="9.26" length="14.34" shape="1994.56,1999.11 1994.85,1999.15 1998.60,2001.40 2000.85,2005.15 2001.60,2010.40"/>
    </edge>
    <edge id=":J16_0" function="internal">
        <lane id=":J16_0_0" index="0" speed="6.51" length="9.03" shape="2995.20,2010.40 2994.85,2007.95 2993.80,2006.20 2992.05,2005.15 2989.60,2004.80"/>
    </edge>
    <edge id=":J16_1" function="internal">
        <lane id=":J16_1_0" index="0" speed="13.89" length="20.80" shape="2995.20,2010.40 2995.20,1989.60"/>
        <lane id=":J16_1_1" index="1" speed="13.89" length="20.80" shape="2998.40,2010.40 2998.40,1989.60"/>
    </edge>
    <edge id=":J16_3" function="internal">
        <lane id=":J16_3_0" index="0" speed="9.26" length="5.01" shape="2998.40,2010.40 2999.11,2005.44"/>
    </edge>
    <edge id=":J16_16" function="internal">
        <lane id=":J16_16_0" index="0" speed="9.26" length="14.34" shape="2999.11,2005.44 2999.15,2005.15 3001.40,2001.40 3005.15,1999.15 3010.40,1998.40"/>
    </edge>
    <edge id=":J16_4" function="internal">
        <lane id=":J16_4_0" index="0" speed="6.51" length="9.03" shape="3010.40,2004.80 3007.95,2005.15 3006.20,2006.20 3005.15,2007.95 3004.80,2010.40"/>
    </edge>
    <edge id=":J16_5" function="internal">
        <lane id=":J16_5_0" index="0" speed="13.89" length="20.80" shape="3010.40,2004.80 2989.60,2004.80"/>
        <lane id=":J16_5_1" index="1" speed="13.89" length="20.80" shape="3010.40,2001.60 2989.60,2001.60"/>
    </edge>
    <edge id=":J16_7" function="internal">
        <lane id=":J16_7_0" index="0" speed="9.26" length="5.01" shape="3010.40,2001.60 3005.44,2000.89"/>
    </edge>
    <edge id=":J16_17" function="internal">
        <lane id=":J16_17_0" index="0" speed="9.26" length="14.34" shape="3005.44,2000.89 3005.15,2000.85 3001.40,1998.60 2999.15,1994.85 2998.40,1989.60"/>
    </edge>
    <edge id=":J16_8" function="internal">
        <lane id=":J16_8_0" index="0" speed="6.51" length="9.03" shape="3004.80,1989.60 3005.15,1992.05 3006.20,1993.80 3007.95,1994.85 3010.40,1995.20"/>
    </edge>
    <edge id=":J16_9" function="internal">
        <lane id=":J16_9_0" index="0" speed="13.89" length="20.80" shape="3004.80,1989.60 3004.80,2010.40"/>
        <lane id=":J16_9_1" index="1" speed="13.89" length="20.80" shape="3001.60,1989.60 3001.60,2010.40"/>
    </edge>
    <edge id=":J16_11" function="internal">
        <lane id=":J16_11_0" index="0" speed="9.26" length="5.01" shape="3001.60,1989.60 3000.89,1994.56"/>
    </edge>
    <edge id=":J16_18" function="internal">
        <lane id=":J16_18_0" index="0" speed="9.26" length="14.34" shape="3000.89,1994.56 3000.85,1994.85 2998.60,1998.60 2994.85,2000.85 2989.60,2001.60"/>
    </edge>
    <edge id=":J16_12" function="internal">
        <lane id=":J16_12_0" index="0" speed="6.51" length="9.03" shape="2989.60,1995.20 2992.05,1994.85 2993.80,1993.80 2994.85,1992.05 2995.20,1989.60"/>
    </edge>
    <edge id=":J16_13" function="internal">
        <lane id=":J16_13_0" index="0" speed="13.89" length="20.80" shape="2989.60,1995.20 3010.40,1995.20"/>
        <lane id=":J16_13_1" index="1" speed="13.89" length="20.80" shape="2989.60,1998.40 3010.40,1998.40"/>
    </edge>
    <edge id=":J16_15" function="internal">
        <lane id=":J16_15_0" index="0" speed="9.26" length="5.01" shape="2989.60,1998.40 2994.56,1999.11"/>
    </edge>
    <edge id=":J16_19" function="internal">
        <lane id=":J16_19_0" index="0" speed="9.26" length="14.34" shape="2994.56,1999.11 2994.85,1999.15 2998.60,2001.40 3000.85,2005.15 3001.60,2010.40"/>
    </edge>
    <edge id=":J19_0" function="internal">
        <lane id=":J19_0_0" index="0" speed="6.51" length="9.03" shape="-4.80,3010.40 -5.15,3007.95 -6.20,3006.20 -7.95,3005.15 -10.40,3004.80"/>
    </edge>
    <edge id=":J19_1" function="internal">
        <lane id=":J19_1_0" index="0" speed="13.89" length="20.80" shape="-4.80,3010.40 -4.80,2989.60"/>
        <lane id=":J19_1_1" index="1" speed="13.89" length="20.80" shape="-1.60,3010.40 -1.60,2989.60"/>
    </edge>
    <edge id=":J19_3" function="internal">
        <lane id=":J19_3_0" index="0" speed="9.26" length="5.01" shape="-1.60,3010.40 -0.89,3005.44"/>
    </edge>
    <edge id=":J19_16" function="internal">
        <lane id=":J19_16_0" index="0" speed="9.26" length="14.34" shape="-0.89,3005.44 -0.85,3005.15 1.40,3001.40 5.15,2999.15 10.40,2998.40"/>
    </edge>
    <edge id=":J19_4" function="internal">
        <lane id=":J19_4_0" index="0" speed="6.51" length="9.03" shape="10.40,3004.80 7.95,3005.15 6.20,3006.20 5.15,3007.95 4.80,3010.40"/>
    </edge>
    <edge id=":J19_5" function="internal">
        <lane id=":J19_5_0" index="0" speed="13.89" length="20.80" shape="10.40,3004.80 -10.40,3004.80"/>
        <lane id=":J19_5_1" index="1" speed="13.89" length="20.80" shape="10.40,3001.60 -10.40,3001.60"/>
    </edge>
    <edge id=":J19_7" function="internal">
        <lane id=":J19_7_0" index="0" speed="9.26" length="5.01" shape="10.40,3001.60 5.44,3000.89"/>
    </edge>
    <edge id=":J19_17" function="internal">
        <lane id=":J19_17_0" index="0" speed="9.26" length="14.34" shape="5.44,3000.89 5.15,3000.85 1.40,2998.60 -0.85,2994.85 -1.60,2989.60"/>
    </edge>
    <edge id=":J19_8" function="internal">
        <lane id=":J19_8_0" index="0" speed="6.51" length="9.03" shape="4.80,2989.60 5.15,2992.05 6.20,2993.80 7.95,2994.85 10.40,2995.20"/>
    </edge>
    <edge id=":J19_9" function="internal">
        <lane id=":J19_9_0" index="0" speed="13.89" length="20.80" shape="4.80,2989.60 4.80,3010.40"/>
        <lane id=":J19_9_1" index="1" speed="13.89" length="20.80" shape="1.60,2989.60 1.60,3010.40"/>
    </edge>
    <edge id=":J19_11" function="internal">
        <lane id=":J19_11_0" index="0" speed="9.26" length="5.01" shape="1.60,2989.60 0.89,2994.56"/>
    </edge>
    <edge id=":J19_18" function="internal">
        <lane id=":J19_18_0" index="0" speed="9.26" length="14.34" shape="0.89,2994.56 0.85,2994.85 -1.40,2998.60 -5.15,3000.85 -10.40,3001.60"/>
    </edge>
    <edge id=":J19_12" function="internal">
        <lane id=":J19_12_0" index="0" speed="6.51" length="9.03" shape="-10.40,2995.20 -7.95,2994.85 -6.20,2993.80 -5.15,2992.05 -4.80,2989.60"/>
    </edge>
    <edge id=":J19_13" function="internal">
        <lane id=":J19_13_0" index="0" speed="13.89" length="20.80" shape="-10.40,2995.20 10.40,2995.20"/>
        <lane id=":J19_13_1" index="1" speed="13.89" length="20.80" shape="-10.40,2998.40 10.40,2998.40"/>
    </edge>
    <edge id=":J19_15" function="internal">
        <lane id=":J19_15_0" index="0" speed="9.26" length="5.01" shape="-10.40,2998.40 -5.44,2999.11"/>
    </edge>
    <edge id=":J19_19" function="internal">
        <lane id=":J19_19_0" index="0" speed="9.26" length="14.34" shape="-5.44,2999.11 -5.15,2999.15 -1.40,3001.40 0.85,3005.15 1.60,3010.40"/>
    </edge>
    <edge id=":J2_0" function="internal">
        <lane id=":J2_0_0" index="0" speed="6.51" length="9.03" shape="995.20,10.40 994.85,7.95 993.80,6.20 992.05,5.15 989.60,4.80"/>
    </edge>
    <edge id=":J2_1" function="internal">
        <lane id=":J2_1_0" index="0" speed="13.89" length="20.80" shape="995.20,10.40 995.20,-10.40"/>
        <lane id=":J2_1_1" index="1" speed="13.89" length="20.80" shape="998.40,10.40 998.40,-10.40"/>
    </edge>
    <edge id=":J2_3" function="internal">
        <lane id=":J2_3_0" index="0" speed="9.26" length="5.01" shape="998.40,10.40 999.11,5.44"/>
    </edge>
    <edge id=":J2_16" function="internal">
        <lane id=":J2_16_0" index="0" speed="9.26" length="14.34" shape="999.11,5.44 999.15,5.15 1001.40,1.40 1005.15,-0.85 1010.40,-1.60"/>
    </edge>
    <edge id=":J2_4" function="internal">
        <lane id=":J2_4_0" index="0" speed="6.51" length="9.03" shape="1010.40,4.80 1007.95,5.15 1006.20,6.20 1005.15,7.95 1004.80,10.40"/>
    </edge>
    <edge id=":J2_5" function="internal">
        <lane id=":J2_5_0" index="0" speed="13.89" length="20.80" shape="1010.40,4.80 989.60,4.80"/>
        <lane id=":J2_5_1" index="1" speed="13.89" length="20.80" shape="1010.40,1.60 989.60,1.60"/>
    </edge>
    <edge id=":J2_7" function="internal">
        <lane id=":J2_7_0" index="0" speed="9.26" length="5.01" shape="1010.40,1.60 1005.44,0.89"/>
    </edge>
    <edge id=":J2_17" function="internal">
        <lane id=":J2_17_0" index="0" speed="9.26" length="14.34" shape="1005.44,0.89 1005.15,0.85 1001.40,-1.40 999.15,-5.15 998.40,-10.40"/>
    </edge>
    <edge id=":J2_8" function="internal">
        <lane id=":J2_8_0" index="0" speed="6.51" length="9.03" shape="1004.80,-10.40 1005.15,-7.95 1006.20,-6.20 1007.95,-5.15 1010.40,-4.80"/>
    </edge>
    <edge id=":J2_9" function="internal">
        <lane id=":J2_9_0" index="0" speed="13.89" length="20.80" shape="1004.80,-10.40 1004.80,10.40"/>
        <lane id=":J2_9_1" index="1" speed="13.89" length="20.80" shape="1001.60,-10.40 1001.60,10.40"/>
    </edge>
    <edge id=":J2_11" function="internal">
        <lane id=":J2_11_0" index="0" speed="9.26" length="5.01" shape="1001.60,-10.40 1000.89,-5.44"/>
    </edge>
    <edge id=":J2_18" function="internal">
        <lane id=":J2_18_0" index="0" speed="9.26" length="14.34" shape="1000.89,-5.44 1000.85,-5.15 998.60,-1.40 994.85,0.85 989.60,1.60"/>
    </edge>
    <edge id=":J2_12" function="internal">
        <lane id=":J2_12_0" index="0" speed="6.51" length="9.03" shape="989.60,-4.80 992.05,-5.15 993.80,-6.20 994.85,-7.95 995.20,-10.40"/>
    </edge>
    <edge id=":J2_13" function="internal">
        <lane id=":J2_13_0" index="0" speed="13.89" length="20.80" shape="989.60,-4.80 1010.40,-4.80"/>
        <lane id=":J2_13_1" index="1" speed="13.89" length="20.80" shape="989.60,-1.60 1010.40,-1.60"/>
    </edge>
    <edge id=":J2_15" function="internal">
        <lane id=":J2_15_0" index="0" speed="9.26" length="5.01" shape="989.60,-1.60 994.56,-0.89"/>
    </edge>
    <edge id=":J2_19" function="internal">
        <lane id=":J2_19_0" index="0" speed="9.26" length="14.34" shape="994.56,-0.89 994.85,-0.85 998.60,1.40 1000.85,5.15 1001.60,10.40"/>
    </edge>
    <edge id=":J20_0" function="internal">
        <lane id=":J20_0_0" index="0" speed="6.51" length="9.03" shape="995.20,3010.40 994.85,3007.95 993.80,3006.20 992.05,3005.15 989.60,3004.80"/>
    </edge>
    <edge id=":J20_1" function="internal">
        <lane id=":J20_1_0" index="0" speed="13.89" length="20.80" shape="995.20,3010.40 995.20,2989.60"/>
        <lane id=":J20_1_1" index="1" speed="13.89" length="20.80" shape="998.40,3010.40 998.40,2989.60"/>
    </edge>
    <edge id=":J20_3" function="internal">
        <lane id=":J20_3_0" index="0" speed="9.26" length="5.01" shape="998.40,3010.40 999.11,3005.44"/>
    </edge>
    <edge id=":J20_16" function="internal">
        <lane id=":J20_16_0" index="0" speed="9.26" length="14.34" shape="999.11,3005.44 999.15,3005.15 1001.40,3001.40 1005.15,2999.15 1010.40,2998.40"/>
    </edge>
    <edge id=":J20_4" function="internal">
        <lane id=":J20_4_0" index="0" speed="6.51" length="9.03" shape="1010.40,3004.80 1007.95,3005.15 1006.20,3006.20 1005.15,3007.95 1004.80,3010.40"/>
    </edge>
    <edge id=":J20_5" function="internal">
        <lane id=":J20_5_0" index="0" speed="13.89" length="20.80" shape="1010.40,3004.80 989.60,3004.80"/>
        <lane id=":J20_5_1" index="1" speed="13.89" length="20.80" shape="1010.40,3001.60 989.60,3001.60"/>
    </edge>
    <edge id=":J20_7" function="internal">
        <lane id=":J20_7_0" index="0" speed="9.26" length="5.01" shape="1010.40,3001.60 1005.44,3000.89"/>
    </edge>
    <edge id=":J20_17" function="internal">
        <lane id=":J20_17_0" index="0" speed="9.26" length="14.34" shape="1005.44,3000.89 1005.15,3000.85 1001.40,2998.60 999.15,2994.85 998.40,2989.60"/>
    </edge>
    <edge id=":J20_8" function="internal">
        <lane id=":J20_8_0" index="0" speed="6.51" length="9.03" shape="1004.80,2989.60 1005.15,2992.05 1006.20,2993.80 1007.95,2994.85 1010.40,2995.20"/>
    </edge>
    <edge id=":J20_9" function="internal">
        <lane id=":J20_9_0" index="0" speed="13.89" length="20.80" shape="1004.80,2989.60 1004.80,3010.40"/>
        <lane id=":J20_9_1" index="1" speed="13.89" length="20.80" shape="1001.60,2989.60 1001.60,3010.40"/>
    </edge>
    <edge id=":J20_11" function="internal">
        <lane id=":J20_11_0" index="0" speed="9.26" length="5.01" shape="1001.60,2989.60 1000.89,2994.56"/>
    </edge>
    <edge id=":J20_18" function="internal">