<?xml version="1.0" encoding="UTF-8"?>

<net version="1.9" junctionCornerDetail="5" limitTurnSpeed="5.50">
    <location netOffset="0.00,0.00" convBoundary="-40.13,13.32,111.24,82.40" origBoundary="-10000000000.00,-10000000000.00,10000000000.00,10000000000.00" projParameter="!"/>

    # 以下是主路
    <edge id="E1_1" from="J0_1" to="J1_1" priority="-1">
        <lane id="E1_1_0" index="0" speed="15" length="200" shape="0,80 70,80"/>
    </edge>
    <edge id="E1_2" from="J1_1" to="J2_1" priority="-1">
        <lane id="E1_2_0" index="0" speed="15" length="200" shape="100,80 170,80"/>
    </edge>
    <edge id="W1_1" from="J1_1" to="J0_1" priority="-1">
        <lane id="W1_1_0" index="0" speed="15" length="200" shape="0,70 70,70"/>
    </edge>
    <edge id="W1_2" from="J2_1" to="J1_1" priority="-1">
        <lane id="W1_2_0" index="0" speed="15" length="200" shape="100,70 170,70"/>
    </edge>
    <edge id="N1_1" from="J1_0" to="J1_1" priority="-1">
        <lane id="N1_1_0" index="0" speed="15" length="200" shape="70,0 70,70"/>
    </edge>
    <edge id="N1_2" from="J1_1" to="J1_2" priority="-1">
        <lane id="N1_2_0" index="0" speed="15" length="200" shape="70,100 70,170"/>
    </edge>
    <edge id="S1_1" from="J1_1" to="J1_0" priority="-1">
        <lane id="S1_1_0" index="0" speed="15" length="200" shape="80,0 80,70"/>
    </edge>
    <edge id="S1_2" from="J1_1" to="J1_2" priority="-1">
        <lane id="N1_2_0" index="0" speed="15" length="200" shape="80,100 80,170"/>
    </edge>

    # 以下是连接的路


    # 以下是节点


    # 以下是对路的连接



    <edge id=":J1_0" function="internal">
        <lane id=":J1_0_0" index="0" speed="13.89" length="11.20" shape="43.26,12.99 54.46,12.99"/>
    </edge>

    <edge id=":J1_1" function="internal">
        <lane id=":J1_1_0" index="0" speed="6.50" length="9.06" shape="43.26,12.99 45.72,13.36 47.46,14.44 48.48,16.20 48.78,18.66"/>
    </edge>

    <junction id="J0" type="dead_end" x="-38.47" y="13.32" incLanes="" intLanes="" shape="-38.47,13.32 -38.42,10.12"/>
    <junction id="J1" type="priority" x="47.27" y="14.63" incLanes="E0_0" intLanes=":J1_0_0 :J1_1_0" shape="54.47,14.60 54.46,11.40 43.29,11.37 43.24,14.57 45.47,15.05 46.24,15.61 46.78,16.40 47.10,17.41 47.18,18.63 50.38,18.70 50.88,16.43 51.45,15.63 52.24,15.06 53.25,14.72">
        <request index="0" response="00" foes="00" cont="0"/>
        <request index="1" response="00" foes="00" cont="0"/>
    </junction>
    <junction id="J2" type="dead_end" x="107.19" y="14.39" incLanes="E1_0" intLanes="" shape="107.18,11.19 107.19,14.39"/>
    <junction id="J3" type="dead_end" x="45.84" y="79.55" incLanes="E2_0" intLanes="" shape="52.32,89.44 53.16,70.26">
    </junction>
    <connection from="E0" to="E1" fromLane="0" toLane="0" via=":J1_0_0" dir="s" state="M"/>
    <connection from="E0" to="E2" fromLane="0" toLane="0" via=":J1_1_0" dir="l" state="M"/>
    <connection from=":J1_0" to="E1" fromLane="0" toLane="0" dir="s" state="M"/>
    <connection from=":J1_1" to="E2" fromLane="0" toLane="0" dir="l" state="M"/>
</net>
