<?xml version="1.0" encoding="UTF-8"?>

<!-- generated on 2023-06-19 21:08:44.689862 by randomTrips.py v1_14_1+2245-8aa96d847b0
<configuration>
    <net-file value="/Users/guanghu/Desktop/real.net.xml"/>
    <route-file value="/Users/guanghu/Desktop/real.rou.xml"/>
</configuration>
-->

<!-- generated on 2023-06-19 21:08:44 by Eclipse SUMO duarouter Version v1_14_1+2245-8aa96d847b0
<configuration xmlns:xsi="http://www.w3.org/2001/XMLSchema-instance" xsi:noNamespaceSchemaLocation="http://sumo.dlr.de/xsd/duarouterConfiguration.xsd">

    <input>
        <net-file value="/Users/guanghu/Desktop/real.net.xml"/>
        <route-files value="trips.trips.xml"/>
    </input>

    <output>
        <output-file value="/Users/guanghu/Desktop/real.rou.xml"/>
        <alternatives-output value="NUL"/>
    </output>

    <time>
        <begin value="0"/>
        <end value="3600"/>
    </time>

    <report>
        <no-warnings value="true"/>
        <ignore-errors value="true"/>
        <no-step-log value="true"/>
    </report>

</configuration>
-->

<routes xmlns:xsi="http://www.w3.org/2001/XMLSchema-instance" xsi:noNamespaceSchemaLocation="http://sumo.dlr.de/xsd/routes_file.xsd">
    <vType id="agent" length="5.0" accel="2.0" decel="5.0" maxSpeed="15.0" color="1,1,0" sigma="0.5" guiShape="passenger/van" >
        <param key="has.emission.device" value="true"/>
        <param key="has.rerouting.device" value="true"/>
    </vType>
    <route id="rou0" edges="E2 E3"/>
    <vehicle depart="0.0" id="veh0" route="rou0" type="agent" color="1,1,0"/>
</routes>
