<?xml version="1.0" encoding="UTF-8"?>

<!-- generated on 2023-06-19 13:40:27.820420 by randomTrips.py v1_14_1+2245-8aa96d847b0
<configuration>
    <net-file value="/Users/guanghu/Desktop/simple.net.xml"/>
    <route-file value="/Users/guanghu/Desktop/simple.rou.xml"/>
</configuration>
-->

<!-- generated on 2023-06-19 13:40:27 by Eclipse SUMO duarouter Version v1_14_1+2245-8aa96d847b0
<configuration xmlns:xsi="http://www.w3.org/2001/XMLSchema-instance" xsi:noNamespaceSchemaLocation="http://sumo.dlr.de/xsd/duarouterConfiguration.xsd">

    <input>
        <net-file value="/Users/guanghu/Desktop/simple.net.xml"/>
        <route-files value="trips.trips.xml"/>
    </input>

    <output>
        <output-file value="/Users/guanghu/Desktop/simple.rou.xml"/>
        <alternatives-output value="NUL"/>
    </output>

    <time>
        <begin value="0"/>
        <end value="3600"/>
    </time>

    <report>
        <no-warnings value="true"/>
        <ignore-errors value="true"/>
        <no-step-log value="true"/>
    </report>

</configuration>
-->

<routes xmlns:xsi="http://www.w3.org/2001/XMLSchema-instance" xsi:noNamespaceSchemaLocation="http://sumo.dlr.de/xsd/routes_file.xsd">
</routes>
