<configuration>
    <input>
        <net-file value="./Net/changelight.net.xml"/>
        <route-files value="./Rou/changelight.rou.xml"/>
        <gui-settings-file value="changelight.settings.xml"/>
    </input>
    <time>
        <begin value="0"/>
        <end value="1000000"/>
        <step-length value="1" />
    </time>
</configuration>
