<configuration>
    <input>
        <net-file value="./Net/real.net.xml"/>
        <route-files value="./Rou/real.rou.xml"/>
        <gui-settings-file value="real.settings.xml"/>
    </input>
    <time>
        <begin value="0"/>
        <end value="10000"/>
    </time>
</configuration>
