<?xml version="1.0" encoding="UTF-8"?>

<!-- generated on 2023-06-15 09:43:55 by Eclipse SUMO netedit Version v1_14_1+2245-8aa96d847b0
<configuration xmlns:xsi="http://www.w3.org/2001/XMLSchema-instance" xsi:noNamespaceSchemaLocation="http://sumo.dlr.de/xsd/netconvertConfiguration.xsd">

    <output>
        <output-file value="/Users/guanghu/Desktop/simple.net.xml"/>
    </output>

    <processing>
        <offset.disable-normalization value="true"/>
    </processing>

    <junctions>
        <no-turnarounds value="true"/>
    </junctions>

</configuration>
-->

<net version="1.9" junctionCornerDetail="5" limitTurnSpeed="5.50" xmlns:xsi="http://www.w3.org/2001/XMLSchema-instance" xsi:noNamespaceSchemaLocation="http://sumo.dlr.de/xsd/net_file.xsd">

    <location netOffset="0.00,0.00" convBoundary="3544.39,-246.22,6972.97,11769.61" origBoundary="10000000000.00,10000000000.00,-10000000000.00,-10000000000.00" projParameter="!"/>

    <edge id=":J12_0" function="internal">
        <lane id=":J12_0_0" index="0" speed="4.03" length="1.65" shape="6970.73,5052.64 6970.88,5052.24 6970.91,5051.84 6970.83,5051.45 6970.64,5051.06"/>
    </edge>

    <edge id="E2" from="J2" to="J3" priority="-1">
        <lane id="E2_0" index="0" speed="13.89" length="12000.44" shape="3673.07,11761.02 3542.87,-238.71"/>
    </edge>
    <edge id="E8" from="J2" to="J12" priority="-1">
        <lane id="E8_0" index="0" speed="13.89" length="7474.21" shape="3676.78,11761.86 6970.73,5052.64"/>
    </edge>
    <edge id="E9" from="J12" to="J3" priority="-1">
        <lane id="E9_0" index="0" speed="13.89" length="6302.19" shape="6970.64,5051.06 3546.62,-239.84"/>
    </edge>

    <junction id="J12" type="priority" x="6972.97" y="5051.72" incLanes="E8_0" intLanes=":J12_0_0" shape="6971.98,5050.19 6969.30,5051.93 6972.17,5053.34 6972.50,5052.27 6972.52,5051.74 6972.44,5051.22 6972.26,5050.71">
        <request index="0" response="0" foes="0" cont="0"/>
    </junction>
    <junction id="J2" type="dead_end" x="3674.76" y="11769.61" incLanes="" intLanes="" shape="3678.22,11762.57 3675.35,11761.16 3674.67,11761.00 3671.47,11761.04 3671.70,11765.23 3672.29,11767.85 3673.24,11768.89 3674.54,11768.36 3676.20,11766.25"/>
    <junction id="J3" type="dead_end" x="3544.39" y="-246.22" incLanes="E2_0 E9_0" intLanes="" shape="3541.27,-238.69 3544.47,-238.73 3545.27,-238.97 3547.96,-240.71 3545.88,-243.58 3544.19,-245.17 3542.88,-245.47 3541.96,-244.50 3541.42,-242.24"/>

    <connection from="E8" to="E9" fromLane="0" toLane="0" via=":J12_0_0" dir="r" state="M"/>

    <connection from=":J12_0" to="E9" fromLane="0" toLane="0" dir="r" state="M"/>

</net>
