<?xml version="1.0" encoding="UTF-8"?>

<!-- generated on 2023-06-15 10:56:58 by Eclipse SUMO netedit Version v1_14_1+2245-8aa96d847b0
<configuration xmlns:xsi="http://www.w3.org/2001/XMLSchema-instance" xsi:noNamespaceSchemaLocation="http://sumo.dlr.de/xsd/netconvertConfiguration.xsd">

    <output>
        <output-file value="/Users/guanghu/Desktop/simple.net.xml"/>
    </output>

    <processing>
        <offset.disable-normalization value="true"/>
    </processing>

    <junctions>
        <no-turnarounds value="true"/>
    </junctions>

</configuration>
-->

<net version="1.9" junctionCornerDetail="5" limitTurnSpeed="5.50" xmlns:xsi="http://www.w3.org/2001/XMLSchema-instance" xsi:noNamespaceSchemaLocation="http://sumo.dlr.de/xsd/net_file.xsd">

    <location netOffset="0.00,0.00" convBoundary="-848.67,-20770.70,7794.81,1765.35" origBoundary="10000000000.00,10000000000.00,-10000000000.00,-10000000000.00" projParameter="!"/>

    <edge id=":J1_0" function="internal">
        <lane id=":J1_0_0" index="0" speed="3.95" length="2.01" shape="7792.19,-9396.69 7792.43,-9397.16 7792.50,-9397.63 7792.41,-9398.10 7792.14,-9398.56"/>
    </edge>

    <edge id="E0" from="J0" to="J1" priority="-1">
        <lane id="E0_0" index="0" speed="13.89" length="13512.66" shape="168.08,1759.70 7792.19,-9396.69"/>
    </edge>
    <edge id="E1" from="J1" to="J2" priority="-1">
        <lane id="E1_0" index="0" speed="13.89" length="14276.35" shape="7792.14,-9398.56 -846.24,-20764.85"/>
    </edge>
    <edge id="E2" from="J0" to="J2" priority="-1">
        <lane id="E2_0" index="0" speed="13.89" length="22544.93" shape="164.25,1758.61 -849.95,-20763.51"/>
    </edge>

    <junction id="J0" type="dead_end" x="166.15" y="1765.35" incLanes="" intLanes="" shape="169.40,1760.60 166.76,1758.79 166.28,1759.32 166.11,1759.35 165.98,1759.23 165.89,1758.96 165.84,1758.53 162.65,1758.68 162.97,1761.81 163.62,1763.81 164.58,1764.69 165.87,1764.45 167.47,1763.09"/>
    <junction id="J1" type="priority" x="7794.81" y="-9397.69" incLanes="E0_0" intLanes=":J1_0_0" shape="7793.42,-9399.53 7790.87,-9397.59 7793.51,-9395.79 7794.08,-9397.05 7794.14,-9397.67 7794.05,-9398.30 7793.81,-9398.91">
        <request index="0" response="0" foes="0" cont="0"/>
    </junction>
    <junction id="J2" type="dead_end" x="-848.67" y="-20770.70" incLanes="E2_0 E1_0" intLanes="" shape="-851.55,-20763.43 -848.35,-20763.58 -848.29,-20764.28 -848.17,-20764.40 -848.01,-20764.38 -847.79,-20764.20 -847.51,-20763.88 -844.96,-20765.82 -847.12,-20768.35 -848.86,-20769.71 -850.17,-20769.90 -851.05,-20768.92 -851.51,-20766.76"/>
    <junction id="J3" type="dead_end" x="-837.64" y="-20753.80" incLanes="" intLanes="" shape="-837.64,-20753.80"/>

    <connection from="E0" to="E1" fromLane="0" toLane="0" via=":J1_0_0" dir="r" state="M"/>

    <connection from=":J1_0" to="E1" fromLane="0" toLane="0" dir="r" state="M"/>

</net>
